<?xml version='1.0' encoding='UTF-8'?>
<edges>
  <edge id="22077803" from="237601031" to="237601032" numLanes="1" width="4.0" shape="466.781146,313.697856 105.038982,306.313261 "/>
  <edge id="22080491" from="237603357" to="Custom907" numLanes="1" width="4.0" shape="-270.162104,1155.191850 -244.267401,1155.466488 -243.234260,1155.820128 -242.876834,1156.851964 -242.467551,1185.525397 "/>
  <edge id="22080594" from="237728963" to="237615807" numLanes="1" width="4.0" shape="-621.249851,567.997003 -603.690895,554.940334 -603.534755,554.811460 -603.392443,554.667461 -600.979906,551.965492 -600.865040,551.824423 -600.763468,551.673501 -600.676029,551.513973 -600.603448,551.347160 -600.546324,551.174442 -599.478620,547.374447 -599.433443,547.175015 -599.408866,546.972013 -599.405145,546.767562 -599.422321,546.563800 -599.906477,543.005535 -599.941132,542.818164 -599.993462,542.634941 -600.062991,542.457530 -600.149088,542.287541 -601.916305,539.175662 -602.032657,538.994287 -602.167847,538.826482 -602.320305,538.674197 -602.488263,538.539198 -605.219729,536.576218 -605.408394,536.456037 -605.609300,536.357677 -605.819933,536.282367 -608.716625,535.426077 -608.922849,535.376835 -609.133127,535.349700 -609.345096,535.344978 -609.556374,535.362722 -613.104198,535.851179 -613.296384,535.887289 -613.484124,535.941994 -613.665626,536.014773 -613.839152,536.104928 -617.236938,538.086956 -617.386620,538.183449 -617.527124,538.292875 -617.657338,538.414366 -617.776228,538.546958 -632.099097,556.027696 "/>
  <edge id="22082621" from="237627737" to="2506670809" numLanes="1" width="4.0" shape="-766.105818,731.178303 -729.309329,739.447577 -729.129754,739.479411 -728.948025,739.494754 -723.949015,739.687908 -723.692314,739.681329 -717.527208,739.125826 "/>
  <edge id="22083318" from="Custom908" to="237636365" numLanes="1" width="4.0" shape="1423.095128,599.345441 1046.884050,592.949407 1026.858090,592.625792 812.210721,589.186267 639.157113,586.419245 "/>
  <edge id="22084795" from="237642405" to="Custom909" numLanes="1" width="4.0" shape="227.506187,-1239.265600 233.594486,-1503.015055 "/>
  <edge id="22084890" from="Custom910" to="237655233" numLanes="1" width="4.0" shape="-840.023749,-1320.333309 -393.987442,-1312.207307 "/>
  <edge id="22085719" from="Custom911" to="237665220" numLanes="1" width="4.0" shape="1409.201316,-507.929499 1354.733667,-509.079586 1354.719896,-509.079830 1231.411026,-510.834106 1205.512484,-511.204094 1187.665742,-511.466289 1002.606804,-514.212601 766.643021,-517.729529 "/>
  <edge id="22088081" from="Custom912" to="237692853" numLanes="1" width="4.0" shape="1375.881013,710.364163 1061.374216,705.207145 1053.771906,704.944222 1045.063068,704.643031 1045.026772,704.642106 810.465667,700.791013 637.178063,697.934443 "/>
  <edge id="22088826" from="237699569" to="Custom913" numLanes="1" width="4.0" shape="-29.071429,108.673721 -30.717585,210.832639 "/>
  <edge id="22089845" from="237712081" to="6426407394" numLanes="1" width="4.0" shape="720.711404,270.731727 720.106115,270.950533 719.937288,271.020438 719.775546,271.105461 719.622238,271.204890 719.478645,271.317897 712.198622,277.606449 712.070901,277.726962 711.954244,277.858214 711.849549,277.999193 709.546627,281.402834 "/>
  <edge id="22090637" from="Custom914" to="237719963" numLanes="1" width="4.0" shape="1414.005305,884.910217 1381.965259,874.549561 1381.959806,874.547806 1355.882907,866.197854 1355.823685,866.179896 1312.267246,853.704779 1312.188048,853.683841 1267.984946,842.961047 1267.913305,842.945055 1230.852155,835.383029 1230.802447,835.373539 1212.777998,832.168531 1212.725176,832.159867 1167.455472,825.354571 1167.372090,825.343823 1121.901713,820.451941 1121.821927,820.444970 1076.260978,817.382143 1076.189754,817.378629 1043.087976,816.336683 1043.058651,816.335975 808.607882,812.396903 635.197302,809.449600 "/>
  <edge id="22090951" from="237650104" to="Custom915" numLanes="1" width="4.0" shape="627.757897,1264.291450 677.253604,1265.700649 "/>
  <edge id="22091435" from="237735514" to="237735516" numLanes="1" width="4.0" shape="-490.094076,924.509258 -462.895955,924.994422 -412.463365,925.900393 "/>
  <edge id="22091436" from="237735520" to="237735514" numLanes="1" width="4.0" shape="-432.626005,1008.935039 -492.274316,1007.825812 -493.262328,1007.475992 -493.575703,1006.475822 -492.130350,926.473709 "/>
  <edge id="22091490" from="237721559" to="Custom916" numLanes="1" width="4.0" shape="-333.863798,1460.256265 -335.216011,1395.071714 -335.231646,1394.860211 -335.718239,1391.044273 -335.755113,1390.840140 -335.812934,1390.640924 -335.891078,1390.448769 -345.570409,1369.788227 "/>
  <edge id="22091567" from="237738424" to="Custom917" numLanes="1" width="4.0" shape="-770.275270,655.019813 -808.625007,649.518774 -813.531176,648.479339 -817.615132,646.669150 -820.687507,644.573328 "/>
  <edge id="22092723" from="6058129774" to="Custom918" numLanes="1" width="4.0" shape="-26.177467,510.923938 -26.244327,516.338154 -26.751624,560.126341 -26.923759,574.349004 -27.618757,585.288345 "/>
  <edge id="22096079" from="237785002" to="237645745" numLanes="1" width="4.0" shape="463.541851,-757.783752 466.151725,-979.456849 "/>
  <edge id="22101964" from="237824585" to="Custom919" numLanes="1" width="4.0" shape="-24.246066,-759.510834 -24.973922,-695.046001 -24.973893,-694.998462 -24.715132,-674.265308 "/>
  <edge id="22102488" from="237816542" to="2506671032" numLanes="1" width="4.0" shape="-536.432308,1170.858597 -564.251342,1188.651443 -573.540583,1192.123833 -584.036805,1194.431885 -600.006842,1196.094741 -600.191075,1196.122651 -604.307903,1196.944112 -606.761180,1197.433632 -606.952990,1197.481878 -607.139097,1197.548833 -607.317680,1197.633843 -610.351917,1199.266909 "/>
  <edge id="22102859" from="Custom920" to="237650109" numLanes="1" width="4.0" shape="1395.300915,1002.372641 1359.410210,990.226465 1359.368546,990.212872 1324.379024,979.220048 1324.324668,979.203814 1298.927048,972.009258 1298.885476,971.997964 1262.135274,962.437563 1262.069154,962.421557 1218.988558,952.765822 1218.918938,952.751513 1174.075825,944.361962 1174.008614,944.350569 1137.859002,938.855203 1137.799339,938.847050 1092.655627,933.369196 1092.574668,933.361040 1041.038915,929.225988 1040.978354,929.222052 1002.392484,927.302008 1002.327720,927.299837 815.744805,924.068319 633.235778,920.637319 "/>
  <edge id="22103396" from="237848444" to="2506670938" numLanes="1" width="4.0" shape="-752.980363,624.973227 -726.264811,629.944016 -720.680180,631.771165 -714.872192,634.427012 -714.813929,634.481358 "/>
  <edge id="22104105" from="237684965" to="237832221" numLanes="1" width="4.0" shape="13.989685,1366.103203 13.548250,1395.852449 13.015537,1404.872815 11.512555,1413.507722 9.207069,1422.866472 -26.810500,1536.936270 -30.406212,1544.795195 -35.234375,1551.120095 -41.987162,1555.803849 -48.221784,1559.236464 -54.035683,1560.744644 -62.763710,1561.769778 -122.705347,1561.641929 "/>
  <edge id="22107823" from="Custom921" to="237881454" numLanes="1" width="4.0" shape="731.088808,1613.604621 734.870255,1395.316716 "/>
  <edge id="22108028" from="Custom922" to="237751404" numLanes="1" width="4.0" shape="-842.646951,-1220.123038 -396.611814,-1212.073112 "/>
  <edge id="22110345" from="237902955" to="237896119" numLanes="1" width="4.0" shape="685.786079,317.519159 658.568832,317.561934 647.259990,317.357579 647.246663,317.357383 643.916760,317.319407 "/>
  <edge id="22113280" from="237626089" to="Custom923" numLanes="1" width="4.0" shape="711.318643,464.668894 715.598358,468.043885 715.746263,468.149975 715.903199,468.242178 720.773488,470.812912 720.932750,470.888204 721.098019,470.949189 721.268013,470.995395 727.246034,472.340626 727.385423,472.366838 735.193797,473.550245 735.458823,473.572526 1032.006705,478.713107 "/>
  <edge id="22116242" from="237948296" to="6426407388" numLanes="1" width="4.0" shape="719.980580,370.573564 717.177533,371.949167 716.994672,372.051112 716.823470,372.171615 710.307454,377.288262 710.174897,377.402052 710.052776,377.526976 709.942022,377.662081 708.570835,379.492285 "/>
  <edge id="168924976" from="1801079971" to="1801079793" numLanes="1" width="4.0" shape="-651.310615,-53.747790 -651.112146,-58.942197 "/>
  <edge id="168924982" from="1801080069" to="1801079793" numLanes="1" width="4.0" shape="-654.942125,-75.841838 -655.110587,-59.038609 "/>
  <edge id="168925345" from="1801083189" to="1801083238" numLanes="1" width="4.0" shape="-571.887478,323.478577 -571.424138,274.415896 -571.386642,270.562136 -570.882973,269.301704 -569.938514,268.897106 -567.255085,268.097114 -511.625482,269.535713 "/>
  <edge id="168925346" from="1801083238" to="1801083132" numLanes="1" width="4.0" shape="-505.518483,263.668608 -505.489767,261.647795 "/>
  <edge id="168925347" from="1801083124" to="1801083190" numLanes="1" width="4.0" shape="-584.721408,331.279220 -584.675651,333.333541 -584.477739,342.629845 "/>
  <edge id="168925348" from="1801083132" to="1801083146" numLanes="1" width="4.0" shape="-505.381337,253.645894 -505.332220,249.835723 "/>
  <edge id="168925349" from="1801083259" to="1801083132" numLanes="1" width="4.0" shape="-485.254681,255.018169 -495.320514,255.292226 -503.488133,255.512616 "/>
  <edge id="168925350" from="1801083207" to="1801083205" numLanes="1" width="4.0" shape="-499.287913,282.297882 -498.911642,267.840960 "/>
  <edge id="168925351" from="1801083124" to="1801083189" numLanes="1" width="4.0" shape="-578.862610,329.335771 -577.974260,329.358149 "/>
  <edge id="168925353" from="1801083205" to="1801083238" numLanes="1" width="4.0" shape="-500.866219,265.789425 -503.531371,265.729782 "/>
  <edge id="168925354" from="1801083259" to="237601043" numLanes="1" width="4.0" shape="-482.313027,261.240424 -469.483974,320.694337 "/>
  <edge id="168925355" from="1801083207" to="Custom924" numLanes="1" width="4.0" shape="-497.458288,288.373187 -490.248031,288.607189 "/>
  <edge id="168925357" from="1801083146" to="1801083124" numLanes="1" width="4.0" shape="-507.250134,247.811621 -562.551996,245.544581 -562.741126,245.545779 -567.834831,245.819223 -567.981890,245.832576 -568.127563,245.856743 -572.780579,246.806394 -573.034788,246.876002 -578.344035,248.713602 -578.497181,248.773770 -578.644862,248.846323 -578.786080,248.930770 -583.636041,252.108928 -583.779876,252.212578 -583.913967,252.328558 -584.037261,252.455957 -585.627104,254.251597 -585.631214,254.256254 -588.207652,257.184472 -588.320588,257.325144 -588.420389,257.475421 -588.506243,257.634079 -590.459481,261.668408 -590.494735,261.745330 -592.431908,266.219749 -592.501239,266.404358 -592.552054,266.594898 -592.583857,266.789515 -593.593619,275.714349 -593.605744,275.892131 -594.736470,323.928284 -594.730034,324.142412 -594.700732,324.354624 -594.648901,324.562484 -593.952105,326.831447 -593.881758,327.024548 -593.791965,327.209411 -593.683676,327.384083 -593.558034,327.546720 -593.416364,327.695604 -593.260164,327.829164 -593.091082,327.945990 -592.910904,328.044846 -592.721532,328.124691 -590.489949,328.933244 -590.284917,328.995329 -590.074421,329.035127 -589.860876,329.052183 -586.861843,329.130531 "/>
  <edge id="168925365" from="1801083189" to="1801083207" numLanes="1" width="4.0" shape="-569.977852,329.561589 -559.670324,329.826420 -559.455284,329.820372 -559.242138,329.791261 -559.033351,329.739426 -556.773132,329.047296 -556.596928,328.984179 -556.427395,328.904866 -556.266019,328.810053 -556.114213,328.700569 -555.973306,328.577373 -555.844533,328.441545 -555.729021,328.294273 -555.627783,328.136848 -555.541703,327.970649 -555.471538,327.797131 -554.688901,325.566635 -554.628695,325.360106 -554.591021,325.148306 -554.576313,324.933684 -554.498611,319.617695 -554.122948,293.916377 -553.012973,290.443686 -551.542694,288.258738 -549.030618,287.217138 -545.685054,286.788703 -505.454894,288.111917 "/>
  <edge id="228514530" from="2371836391" to="2371836819" numLanes="1" width="4.0" shape="553.075593,1360.849121 553.375734,1363.937117 552.981841,1366.024339 552.429368,1367.416914 550.919642,1368.366906 547.396984,1369.519135 545.628261,1369.538802 544.295759,1369.082610 543.352483,1368.007450 542.019224,1364.175474 "/>
  <edge id="228514532" from="2371837182" to="2371837664" numLanes="1" width="4.0" shape="489.508654,1253.375110 487.880903,1253.513697 487.702621,1253.536987 487.527151,1253.576194 483.597078,1254.641873 483.411728,1254.701966 483.233106,1254.779811 483.062905,1254.874668 478.894490,1257.471714 478.722067,1257.592169 478.563248,1257.730066 478.419789,1257.883880 474.529490,1262.521653 474.377542,1262.728406 470.513881,1268.761658 470.426297,1268.912532 470.352194,1269.070463 467.626736,1275.606147 467.536832,1275.873373 466.440144,1280.097851 466.393082,1280.339382 465.686644,1285.706050 465.669662,1285.989328 465.761944,1294.279905 465.779122,1294.520146 467.193821,1305.205482 "/>
  <edge id="228514533" from="Custom925" to="2371840136" numLanes="1" width="4.0" shape="381.070226,1143.415519 373.334626,1148.544026 363.836872,1153.453126 363.724473,1153.515886 355.518076,1158.451011 355.372346,1158.547564 355.235605,1158.656474 351.078617,1162.275302 350.916877,1162.433019 350.773955,1162.607970 350.651675,1162.797923 348.539060,1166.526885 348.417013,1166.783178 346.311630,1172.157059 346.227567,1172.426059 344.774747,1178.565313 344.744018,1178.723281 344.726089,1178.883208 344.168894,1186.674094 344.163923,1186.839056 344.272723,1196.601095 343.975051,1203.104476 343.432125,1207.653171 "/>
  <edge id="228514539" from="2371841965" to="2371842641" numLanes="1" width="4.0" shape="180.463134,1209.559913 178.262235,1214.532912 171.562838,1222.202168 162.555881,1229.644194 162.417534,1229.769830 162.291517,1229.907830 162.178931,1230.056990 162.080759,1230.216007 156.638052,1240.030072 156.563164,1240.179511 156.501015,1240.334681 147.523638,1265.781938 147.464904,1265.980708 147.427056,1266.184489 147.410502,1266.391093 146.368412,1303.447400 146.367746,1303.525879 146.419825,1308.205241 146.488261,1314.354341 145.350069,1321.486870 141.766004,1334.197224 133.509151,1361.311404 130.039074,1367.605395 127.403434,1370.318219 124.388129,1372.045212 "/>
  <edge id="228514547" from="2371834461" to="2371834382" numLanes="1" width="4.0" shape="740.480978,1369.056180 832.221472,1378.120108 "/>
  <edge id="228514548" from="2371836313" to="2371836287" numLanes="1" width="4.0" shape="560.734700,1351.584961 561.230899,1298.071735 "/>
  <edge id="228514550" from="2371834859" to="Custom926" numLanes="1" width="4.0" shape="603.011520,1286.672381 602.495687,1323.016341 "/>
  <edge id="228514555" from="2371834617" to="2371834518" numLanes="1" width="4.0" shape="700.633668,1291.791308 721.405680,1292.760143 "/>
  <edge id="228514558" from="2371834649" to="Custom927" numLanes="1" width="4.0" shape="670.182425,1021.846154 654.389061,1021.415104 653.395107,1021.054015 653.082989,1020.043614 653.852611,984.365866 "/>
  <edge id="228514565" from="2371834650" to="2371834647" numLanes="1" width="4.0" shape="677.863647,1035.517860 697.926950,1036.180920 698.141311,1036.176505 698.353968,1036.149169 698.562476,1036.099225 700.835922,1035.423949 701.030111,1035.355203 701.216197,1035.266847 701.392209,1035.159818 701.556277,1035.035252 701.706662,1034.894471 701.841768,1034.738967 701.960162,1034.570391 702.060588,1034.390530 702.141980,1034.201294 702.965593,1031.977285 703.029168,1031.772521 703.070458,1031.562127 703.088987,1031.348523 703.488560,1019.209453 703.484119,1018.995106 703.456758,1018.782467 703.406794,1018.573977 702.731223,1016.300465 702.662469,1016.106319 702.574113,1015.920272 702.467091,1015.744299 702.342540,1015.580266 702.201779,1015.429912 702.046301,1015.294831 701.877756,1015.176457 701.697930,1015.076044 701.508731,1014.994658 699.284629,1014.170876 699.079881,1014.107293 698.869504,1014.065993 698.655915,1014.047449 678.370475,1013.378225 "/>
  <edge id="228514566" from="237881454" to="2371834461" numLanes="1" width="4.0" shape="735.584907,1387.676623 737.496837,1376.485846 737.510290,1376.394426 738.191095,1370.887760 "/>
  <edge id="228514569" from="2371843836" to="Custom928" numLanes="1" width="4.0" shape="-40.960386,1161.762964 -52.271953,1170.228344 -52.399540,1170.332284 -54.356741,1172.065475 -54.473007,1172.177109 -54.579905,1172.297743 -56.442173,1174.578178 -56.568097,1174.750363 -56.674965,1174.934981 -56.761563,1175.129930 -57.624681,1177.390917 -57.693553,1177.607553 -57.737396,1177.830605 -57.755646,1178.057192 -57.823437,1180.940691 -57.818685,1181.133254 -57.795432,1181.324466 -57.753892,1181.512555 -57.093906,1183.939329 -56.998424,1184.211278 -54.591206,1189.753215 -54.310922,1191.224617 -54.479799,1192.808097 -55.197827,1194.161878 -56.921553,1195.778225 -68.079287,1202.058952 -69.881475,1202.497506 -72.038291,1202.448517 -74.350520,1201.732511 -76.129419,1200.696954 -76.898335,1199.362330 -77.360740,1197.262761 -77.405752,1193.224458 -77.425721,1192.963965 -78.003835,1188.916306 -78.007626,1188.890922 -78.949379,1182.851963 -78.898550,1180.254898 -78.441415,1176.996330 -74.931178,1164.915763 -74.883523,1164.712820 -74.036446,1160.017891 -74.007786,1159.774437 -73.785599,1155.800929 -73.783245,1155.633968 -73.794825,1155.467393 -74.987900,1144.779357 -75.387730,1139.724952 -73.341774,1107.749679 -72.703406,1103.816089 -71.643868,1100.321057 -70.127810,1096.576072 -67.953250,1092.170731 -62.560536,1084.666905 -62.459557,1084.511709 -59.898824,1080.146551 -59.794105,1079.941940 -59.713555,1079.726666 -58.845392,1076.925617 -58.789913,1076.701666 -57.794052,1071.383970 -56.420850,1066.899464 -54.131033,1062.778265 -50.589555,1058.298982 -45.554842,1054.612385 "/>
  <edge id="228514571" from="2371836928" to="2371836984" numLanes="1" width="4.0" shape="521.972530,1275.437567 514.274213,1296.702151 514.212887,1296.904330 513.235450,1300.869948 513.195593,1301.078941 513.178163,1301.290986 513.090055,1304.349412 513.094036,1304.545625 513.117227,1304.740503 514.625400,1313.658438 "/>
  <edge id="228514572" from="2371834704" to="2371834687" numLanes="1" width="4.0" shape="648.461870,1122.237241 653.740044,1122.411619 654.756403,1122.785778 655.083263,1123.818321 654.244510,1187.660938 654.231927,1188.618766 654.241973,1188.846958 655.074288,1197.048885 "/>
  <edge id="228514576" from="2371837641" to="Custom929" numLanes="1" width="4.0" shape="467.247790,1384.613810 465.640650,1385.304039 465.429536,1385.409882 465.232369,1385.539873 462.457212,1387.614545 462.319960,1387.726979 462.193212,1387.851134 459.307192,1390.940640 459.189765,1391.078341 459.085266,1391.226093 458.994550,1391.382686 458.918360,1391.546838 458.857321,1391.717205 457.871336,1394.918517 457.822195,1395.111873 457.792562,1395.309163 457.782732,1395.508423 457.787196,1402.902678 457.787200,1402.905392 457.796712,1407.757279 "/>
  <edge id="228514578" from="Custom930" to="2371841490" numLanes="1" width="4.0" shape="281.507878,1240.175255 275.719432,1238.759819 272.950696,1237.471425 272.764937,1237.396065 272.572566,1237.339679 269.521917,1236.609324 269.335427,1236.573939 269.146423,1236.556392 264.569249,1236.349830 264.340623,1236.352596 264.113808,1236.381436 255.480277,1237.985219 248.039563,1238.441113 235.021977,1238.453127 "/>
  <edge id="243244291" from="2506655987" to="2506656054" numLanes="1" width="4.0" shape="-370.081773,-265.586840 -281.201974,-263.394736 "/>
  <edge id="243244292" from="237639316" to="2506656031" numLanes="1" width="4.0" shape="-181.900238,-97.890298 -184.972195,-96.700324 -203.349584,-96.916007 -209.631766,-99.110413 "/>
  <edge id="243244293" from="2506655995" to="2506656049" numLanes="1" width="4.0" shape="-180.497094,-199.936130 -183.938910,-202.755428 -184.086327,-202.865260 -184.243206,-202.961093 -186.446064,-204.171391 "/>
  <edge id="243244294" from="2506656021" to="2506655979" numLanes="1" width="4.0" shape="-364.849273,-221.696205 -359.796435,-215.560658 -359.685753,-215.437083 -359.565211,-215.323106 -359.435637,-215.219511 -356.748278,-213.247933 -356.582537,-213.138563 -356.406766,-213.046168 -353.102556,-211.513568 -352.944316,-211.448248 -352.781070,-211.396699 -352.614013,-211.359299 -347.951899,-210.523303 -347.667402,-210.493078 -318.529939,-209.494445 -318.333626,-209.497359 -318.138544,-209.519507 -315.301152,-209.983678 -315.110137,-210.024594 -314.924024,-210.083949 -314.744590,-210.161177 -314.573547,-210.255543 -314.412525,-210.366144 -312.607042,-211.740728 -312.447950,-211.875512 -312.303756,-212.026126 -312.176026,-212.190934 -310.471614,-214.644331 -310.332615,-214.876497 -306.501928,-222.384800 "/>
  <edge id="243244295" from="2506656019" to="2506656010" numLanes="1" width="4.0" shape="-277.965552,-10.008195 -199.998484,-9.232890 "/>
  <edge id="243244296" from="2506656050" to="2506656013" numLanes="1" width="4.0" shape="-199.781113,-28.944326 -277.603853,-29.720807 "/>
  <edge id="243244298" from="2506656008" to="2506655983" numLanes="1" width="4.0" shape="-202.589841,-206.573929 -274.240534,-206.635553 "/>
  <edge id="243244300" from="2506656014" to="2506656025" numLanes="1" width="4.0" shape="-192.182541,7.885347 -179.139201,8.008195 "/>
  <edge id="243244301" from="2506656028" to="2506656022" numLanes="1" width="4.0" shape="-199.376797,-65.809189 -276.910781,-66.580433 "/>
  <edge id="243244302" from="2506656034" to="2506656029" numLanes="1" width="4.0" shape="-202.989419,-136.055548 -275.606224,-136.123066 "/>
  <edge id="243244304" from="2506656042" to="2506656036" numLanes="1" width="4.0" shape="-275.258558,-150.155231 -202.886294,-150.107865 "/>
  <edge id="243244306" from="2506656016" to="2506656024" numLanes="1" width="4.0" shape="-277.290747,-43.594474 -199.623539,-42.824268 "/>
  <edge id="243244307" from="2506656038" to="2506656040" numLanes="1" width="4.0" shape="-370.363757,-246.062619 -281.537130,-243.709768 "/>
  <edge id="243244310" from="2506656049" to="2506656045" numLanes="1" width="4.0" shape="-186.387572,-205.499335 -185.863608,-205.835439 -183.504232,-207.349415 -183.370127,-207.443436 -183.244164,-207.548115 -179.507031,-210.921826 -179.337194,-211.094958 -179.189562,-211.287373 -174.004255,-218.968700 "/>
  <edge id="243244311" from="2506655997" to="5041488830" numLanes="1" width="4.0" shape="-216.698646,-277.578085 -219.183962,-275.981286 -222.383798,-275.182377 -228.505175,-275.224574 "/>
  <edge id="243244312" from="2506656031" to="237639316" numLanes="1" width="4.0" shape="-209.619744,-99.489383 -203.330179,-101.247895 -184.714586,-100.852695 -181.960220,-100.161642 "/>
  <edge id="243244317" from="2506656014" to="2506655990" numLanes="1" width="4.0" shape="-200.144482,3.810119 -278.233165,3.073442 "/>
  <edge id="243244318" from="2506655992" to="2506656035" numLanes="1" width="4.0" shape="-202.791152,-171.455929 -274.952658,-171.520214 "/>
  <edge id="243244319" from="2506656056" to="2506656047" numLanes="1" width="4.0" shape="-274.603662,-185.385018 -202.686412,-185.318443 "/>
  <edge id="243245597" from="2506666661" to="2506637238" numLanes="1" width="4.0" shape="-415.536693,-300.799864 -416.654876,-241.949345 -416.647505,-241.735660 -416.617365,-241.523983 -416.564800,-241.316733 -415.857831,-239.046366 -415.787154,-238.854538 -415.697265,-238.670927 -415.589101,-238.497452 -415.463794,-238.335924 -415.322652,-238.188033 -415.167151,-238.055322 -414.998914,-237.939178 -414.819699,-237.840815 -414.631380,-237.761261 -412.396491,-236.949078 -412.191921,-236.886895 -411.981882,-236.846906 -411.768774,-236.829568 -384.521280,-236.074594 "/>
  <edge id="243245602" from="2506666682" to="2506666658" numLanes="1" width="4.0" shape="-437.100089,-288.484943 -467.045027,-289.229028 -467.259683,-289.222829 -467.472436,-289.193652 -467.680835,-289.141831 -469.944833,-288.447867 -470.139256,-288.377078 -470.325324,-288.286581 -470.501047,-288.177344 -470.664544,-288.050537 -470.814065,-287.907517 -470.948009,-287.749814 -471.064943,-287.579116 -471.163616,-287.397251 -471.242971,-287.206165 -472.036813,-284.975227 -472.097839,-284.769336 -472.136438,-284.558088 -472.152165,-284.343920 -473.990872,-190.495739 "/>
  <edge id="243245664" from="2506667448" to="2506667445" numLanes="1" width="4.0" shape="-179.262876,57.147169 -189.359014,57.127289 -191.244470,56.286049 -194.328917,54.909852 -194.511798,54.838794 -194.700761,54.785997 -194.893989,54.751968 -195.089621,54.737037 -223.525057,53.966037 "/>
  <edge id="243245665" from="5041458570" to="5041458569" numLanes="1" width="4.0" shape="-209.465299,23.499411 -200.602621,23.640082 "/>
  <edge id="243245668" from="2506667432" to="2506667443" numLanes="1" width="4.0" shape="-271.650198,37.905550 -231.389660,38.746256 "/>
  <edge id="243245670" from="5041458568" to="5041458567" numLanes="1" width="4.0" shape="-209.537689,27.578989 -200.674635,27.752891 "/>
  <edge id="243245951" from="237816479" to="2506671026" numLanes="1" width="4.0" shape="-712.724595,837.140629 -714.364542,858.139687 "/>
  <edge id="243246050" from="237816507" to="2506672970" numLanes="1" width="4.0" shape="-589.665875,929.671849 -577.412225,925.225077 -577.252293,925.159078 -572.833605,923.107657 -572.667333,923.020762 -572.509934,922.918669 -572.362795,922.802277 -569.239640,920.084170 -569.108164,919.958809 -568.988606,919.822035 -568.881952,919.674977 -568.789081,919.518848 -568.710761,919.354936 -568.647636,919.184594 -567.360191,915.157895 -567.312281,914.980261 -567.280897,914.798977 -567.266305,914.615575 -567.268627,914.431608 -567.542998,909.757820 -567.561983,909.576391 -567.597419,909.397446 -567.649012,909.222474 -567.716334,909.052930 -567.798823,908.890226 -567.895794,908.735715 -570.649645,904.762537 -570.778792,904.595738 -570.924790,904.443469 -571.086013,904.307425 -571.260669,904.189119 -571.446815,904.089868 -575.197396,902.337515 -575.382372,902.262102 -575.573948,902.205516 -575.770213,902.168323 -575.969210,902.150895 -580.412706,901.984629 -580.608711,901.986907 -580.803552,902.008362 -580.995357,902.048787 -585.423985,903.211478 -585.586249,903.261532 -585.743681,903.325169 -598.685090,909.207271 "/>
  <edge id="244138178" from="2514875804" to="2514875888" numLanes="1" width="4.0" shape="-487.360551,1232.666165 -471.362689,1222.580780 -468.246176,1221.747724 -465.393852,1221.750465 -462.609067,1222.653547 -460.633203,1223.959080 -459.510662,1225.841988 -459.223945,1228.693153 -459.907173,1231.950686 -462.201408,1234.848086 -479.779813,1244.180129 "/>
  <edge id="244261163" from="Custom931" to="2515996675" numLanes="1" width="4.0" shape="1355.326566,-451.785619 1206.019308,-453.860103 1195.802068,-454.001015 1187.527958,-454.115127 1062.206613,-455.856321 1001.726867,-456.696616 967.978040,-457.164920 787.838925,-459.664556 746.141678,-460.245671 "/>
  <edge id="384921537" from="237816552" to="237816554" numLanes="1" width="4.0" shape="-374.663489,1275.727172 -378.710168,1259.100510 -377.608753,1255.919970 -374.842322,1252.515890 -370.997063,1251.208059 -367.140706,1251.679350 -363.364171,1254.617325 -358.551637,1271.338090 "/>
  <edge id="467502095" from="4621151840" to="4621151841" numLanes="1" width="4.0" shape="-57.716392,309.038053 -57.903167,318.484488 "/>
  <edge id="467502096" from="4621151841" to="4621151844" numLanes="1" width="4.0" shape="-55.251708,324.165399 -54.723999,324.911844 -54.032400,327.198354 -53.411802,330.635812 -54.427771,414.335062 -55.003104,419.313345 -55.188074,420.222420 "/>
  <edge id="467502100" from="4621151864" to="4621151841" numLanes="1" width="4.0" shape="-59.229411,417.763581 -58.573155,413.095942 -58.553718,412.830401 -58.414129,391.213293 -58.016613,329.652986 -57.418139,326.307087 -56.343670,323.787267 "/>
  <edge id="467502105" from="4621151989" to="4621151992" numLanes="1" width="4.0" shape="-255.641284,305.276520 -256.378665,361.240437 -256.371496,361.438014 -256.344854,361.633918 -256.299000,361.826234 -256.234383,362.013083 -253.526888,368.744830 -253.449882,368.913303 -253.357619,369.073930 -253.250891,369.225331 -253.130613,369.366209 -252.997817,369.495354 -252.853642,369.611659 -252.699325,369.714126 -246.985637,373.137763 "/>
  <edge id="516436256" from="5041458566" to="5041458565" numLanes="1" width="4.0" shape="-209.619350,31.492223 -200.744442,31.732455 "/>
  <edge id="516436257" from="2506667444" to="5041458566" numLanes="1" width="4.0" shape="-223.303236,31.126268 -209.618701,31.492241 "/>
  <edge id="516436258" from="2506667441" to="5041458568" numLanes="1" width="4.0" shape="-223.241373,27.316008 -209.536828,27.579005 "/>
  <edge id="516436260" from="2506667429" to="5041458570" numLanes="1" width="4.0" shape="-223.191159,23.281553 -209.465299,23.499412 "/>
  <edge id="516440740" from="5041488831" to="2506656057" numLanes="1" width="4.0" shape="-240.030429,-275.309694 -246.104926,-275.357038 -246.331922,-275.345894 -246.556188,-275.309069 -246.774829,-275.247038 -249.429387,-274.328004 -249.622558,-274.249629 -249.806522,-274.151573 -249.979280,-274.034900 -250.138954,-273.900878 -252.556277,-271.647038 -252.698526,-271.500115 -252.825027,-271.339435 -252.934459,-271.166676 -253.025677,-270.983645 -253.097728,-270.792257 -254.169998,-267.432182 -254.220669,-267.241337 -254.252274,-267.046427 -254.264505,-266.849349 -254.476993,-249.986043 "/>
  <edge id="516440741" from="5041488830" to="5041488831" numLanes="1" width="4.0" shape="-228.504191,-275.224567 -240.031246,-275.309700 "/>
  <edge id="549674883" from="5309701888" to="5309701898" numLanes="1" width="4.0" shape="-43.479895,432.825271 -44.592548,485.661860 "/>
  <edge id="549674884" from="5309701889" to="5309701897" numLanes="1" width="4.0" shape="-23.914732,429.272066 -24.420220,489.957095 "/>
  <edge id="549674885" from="5309701886" to="5309701899" numLanes="1" width="4.0" shape="-78.653392,419.469911 -79.616015,451.803862 "/>