<?xml version='1.0' encoding='UTF-8'?>
<nodes>
  <node id="237601033" x="-155.33788" y="654.538722" shape="-158.790125,650.497435 -151.790619,650.580574 -150.087947,654.565272 -150.108176,658.565221 -160.608041,658.512121 -160.587813,654.512172 -158.790125,650.497435 -158.790125,650.497435"/>
  <node id="237601035" x="-307.825075" y="653.059218" shape="-307.817618,651.059232 -303.817646,651.074145 -303.832559,655.074117 -305.929051,657.109538 -309.927717,657.006229 -311.782402,655.142380 -311.866001,651.143253 -307.866874,651.059655 -307.817618,651.059232 -307.817618,651.059232"/>
  <node id="237635660" x="237.640884" y="59.096384" shape="235.724009,55.055890 239.723155,55.138588 241.703599,55.669381 241.576858,62.668234 233.579583,62.525062 233.703438,55.526158 235.724009,55.055890 235.724009,55.055890"/>
  <node id="237635661" x="136.1508" y="57.282775" shape="135.201189,52.912622 140.212446,53.854505 140.087887,60.853397 138.094338,61.310511 134.094734,61.254247 132.088666,60.710466 132.214221,53.711592 135.201189,52.912622 135.201189,52.912622"/>
  <node id="237635663" x="-144.940828" y="52.241691" shape="-151.832056,48.057079 -137.837000,48.429128 -136.191024,52.300264 -136.217800,56.300175 -153.717408,56.183028 -153.690632,52.183118 -151.832056,48.057079 -151.832056,48.057079"/>
  <node id="237635664" x="-390.803019" y="47.839693" shape="-392.710716,43.794858 -388.711769,43.886634 -387.298472,44.400818 -387.421626,51.399735 -390.864596,51.339151 -392.802492,47.793805 -392.710716,43.794858 -392.710716,43.794858"/>
  <node id="237639315" x="-146.283666" y="454.208749" shape="-153.272262,450.188858 -139.272319,450.228672 -139.283694,454.228656 -139.283999,454.277028 -139.323016,458.276838 -153.322350,458.140280 -153.272262,450.188858 -153.272262,450.188858"/>
  <node id="237639316" x="-145.673117" y="252.993422" shape="-154.885796,248.620030 -136.913281,249.015009 -136.923144,253.014997 -136.947635,260.023960 -154.447528,259.962798 -155.859202,252.499783 -154.885796,248.620030 -154.885796,248.620030"/>
  <node id="237641342" x="-381.336703" y="-287.300357" shape="-383.233699,-291.350222 -379.235009,-291.247873 -377.152422,-288.878898 -377.563301,-284.900057 -379.438150,-283.251222 -383.436879,-283.352033 -383.336068,-287.350763 -383.233699,-291.350222 -383.233699,-291.350222"/>
  <node id="237641348" x="-133.937132" y="-262.050472" shape="-140.830032,-266.232329 -126.834829,-265.865874 -126.939530,-261.867245 -126.948416,-261.653175 -127.175442,-257.659623 -141.152875,-258.454216 -140.830032,-266.232329 -140.830032,-266.232329"/>
  <node id="237642388" x="239.887902" y="-172.988135" shape="237.951276,-177.019199 241.950778,-176.956074 243.924813,-174.912544 243.849576,-170.913251 241.826560,-168.958047 237.827026,-169.019156 235.856774,-171.051641 235.920030,-175.051140 237.951276,-177.019199 237.951276,-177.019199"/>
  <node id="237642389" x="243.554694" y="-405.521309" shape="241.590734,-409.539127 245.590572,-409.503168 247.589773,-407.449555 247.518339,-403.450193 245.490831,-401.490010 241.491337,-401.553620 239.497994,-403.638974 239.614806,-407.637268 241.590734,-409.539127 241.590734,-409.539127"/>
  <node id="237642390" x="246.281152" y="-636.116771" shape="244.366509,-640.158323 248.365608,-640.073417 250.323623,-638.029473 250.236796,-634.030416 248.220326,-632.086932 244.220785,-632.147528 242.253393,-634.173280 242.309704,-638.172884 244.366509,-640.158323 244.366509,-640.158323"/>
  <node id="237645749" x="-121.683105" y="-643.417384" shape="-128.578901,-647.594463 -114.583448,-647.237707 -114.685378,-643.239006 -114.686346,-643.204385 -114.808060,-639.206237 -128.801578,-639.632236 -128.578901,-647.594463 -128.578901,-647.594463"/>
  <node id="237645754" x="-372.019875" y="-647.694394" shape="-373.911080,-651.746967 -369.912540,-651.638901 -367.986270,-649.625722 -368.054649,-645.626306 -370.124513,-643.643764 -374.123162,-643.747726 -376.050117,-645.756057 -375.988690,-649.755585 -373.911080,-651.746967 -373.911080,-651.746967"/>
  <node id="237647478" x="-141.402056" y="-60.432292" shape="-148.289574,-64.623008 -134.294853,-64.238559 -134.404696,-60.240068 -134.406102,-60.194327 -134.542082,-56.196639 -148.533990,-56.672569 -148.289574,-64.623008 -148.289574,-64.623008"/>
  <node id="237647488" x="-138.076086" y="-178.960861" shape="-144.867501,-183.305591 -130.884984,-182.606140 -131.191754,-174.764914 -145.186178,-175.159994 -145.073298,-179.158401 -145.067344,-179.310587 -144.867501,-183.305591 -144.867501,-183.305591"/>
  <node id="237647491" x="-131.051945" y="-372.208617" shape="-137.803227,-376.615451 -123.827714,-375.787791 -124.153603,-368.035742 -138.149272,-368.383967 -138.049779,-372.382729 -138.039702,-372.622447 -137.803227,-376.615451 -137.803227,-376.615451"/>
  <node id="237647492" x="-128.603607" y="-413.550182" shape="-135.482910,-417.754369 -121.488969,-417.342533 -121.606636,-413.344264 -121.615850,-413.136352 -121.852325,-409.143348 -135.827838,-409.971008 -135.482910,-417.754369 -135.482910,-417.754369"/>
  <node id="237647495" x="-125.076058" y="-532.389032" shape="-131.950249,-536.601573 -117.956818,-536.172737 -118.198859,-528.181404 -132.192592,-528.600241 -132.072925,-532.598451 -131.950249,-536.601573 -131.950249,-536.601573"/>
  <node id="237699569" x="-0.906225" y="457.367887" shape="-4.861914,455.281617 3.129046,455.440043 3.057213,459.439398 1.029069,461.399591 -2.970412,461.335145 -4.948655,459.280676 -4.861914,455.281617 -4.861914,455.281617"/>
  <node id="237751373" x="-388.112512" y="-69.107323" shape="-389.961971,-73.179116 -385.964752,-73.029966 -384.047414,-70.971453 -384.182149,-66.973723 -386.205206,-65.062303 -390.204144,-65.154466 -392.131262,-67.145272 -392.093403,-71.145092 -389.961971,-73.179116 -389.961971,-73.179116"/>
  <node id="237751378" x="-383.917716" y="-181.527551" shape="-385.832975,-185.568811 -381.833863,-185.484514 -379.994603,-183.674453 -379.846327,-179.677202 -382.068257,-177.455758 -386.065476,-177.604908 -387.942512,-179.577931 -387.892289,-183.577616 -385.832975,-185.568811 -385.832975,-185.568811"/>
  <node id="237751383" x="-378.495131" y="-398.318175" shape="-380.388883,-402.369558 -376.390276,-402.264006 -374.316377,-399.911290 -374.713387,-395.931041 -376.598135,-394.268310 -380.596825,-394.370659 -380.494476,-398.369350 -380.388883,-402.369558 -380.388883,-402.369558"/>
  <node id="237751385" x="-377.797582" y="-424.743339" shape="-379.692682,-428.794092 -375.694040,-428.689871 -375.798261,-424.691228 -375.903830,-420.691956 -379.902437,-420.797508 -381.827884,-422.805127 -381.766333,-426.804654 -379.692682,-428.794092 -379.692682,-428.794092"/>
  <node id="237751391" x="-374.962897" y="-536.176633" shape="-376.829478,-540.240606 -372.831667,-540.108281 -370.933530,-538.116788 -370.993153,-534.117232 -373.070458,-532.124637 -377.069031,-532.231484 -378.991190,-534.234248 -378.933780,-538.233836 -376.829478,-540.240606 -376.829478,-540.240606"/>
  <node id="237812063" x="133.325399" y="258.556271" shape="131.381640,254.528641 135.381248,254.584686 137.364869,256.637240 137.284306,260.636429 135.264443,262.586173 131.264904,262.525447 129.286295,260.476073 129.366095,256.476869 131.381640,254.528641 131.381640,254.528641"/>
  <node id="237824572" x="-237.315811" y="-382.659222" shape="-239.135220,-386.744531 -235.139209,-386.565935 -233.152207,-384.291521 -233.511809,-380.307718 -237.495612,-380.667321 -237.522430,-380.669923 -241.501027,-381.083162 -241.087789,-385.061759 -239.135220,-386.744531 -239.135220,-386.744531"/>
  <node id="237824585" x="3.899984" y="-410.826575" shape="1.904200,-414.828680 5.904198,-414.824465 7.939155,-412.746235 7.859215,-408.747034 5.854696,-406.804250 1.854951,-406.849410 -0.140231,-408.909113 -0.058115,-412.908270 1.904200,-414.828680 1.904200,-414.828680"/>
  <node id="237920754" x="130.271052" y="459.723983" shape="128.332008,455.694081 132.331547,455.754807 134.311240,457.806463 134.229181,461.805621 132.207759,463.755008 128.208256,463.691964 126.235781,461.651827 126.307614,457.652472 128.332008,455.694081 128.332008,455.694081"/>
  <node id="237931324" x="-229.917871" y="-534.014392" shape="-233.887615,-536.073793 -229.888060,-536.014170 -225.884344,-535.945885 -225.952561,-531.946466 -228.137248,-529.912029 -232.131388,-530.128476 -233.947238,-532.074237 -233.887615,-536.073793 -233.887615,-536.073793"/>
  <node id="2506636613" x="-347.388119" y="48.617626" shape="-351.324673,45.046416 -343.326632,45.189168 -343.450866,52.188065 -345.447974,52.646998 -349.447530,52.587365 -351.450277,52.045289 -351.324673,45.046416 -351.324673,45.046416"/>
  <node id="2506637228" x="-250.384859" y="50.357078" shape="-254.321515,46.785980 -246.323447,46.928532 -246.447528,53.927432 -248.457372,54.392520 -252.456721,54.320333 -254.446920,53.784856 -254.321515,46.785980 -254.321515,46.785980"/>
  <node id="2506637238" x="-354.366402" y="114.698387" shape="-354.012131,110.240305 -350.587374,112.306954 -352.460433,118.744037 -356.459341,118.650552 -358.420262,116.586830 -358.309473,112.588365 -354.012131,110.240305 -354.012131,110.240305"/>
  <node id="2506655979" x="-280.364591" y="125.804635" shape="-284.313970,123.706444 -276.316588,123.903670 -276.415017,127.902458 -280.400911,130.276623 -283.963974,128.458772 -284.412771,127.705224 -284.313970,123.706444 -284.313970,123.706444"/>
  <node id="2506655982" x="-171.719437" y="108.397205" shape="-173.605356,104.342170 -169.606960,104.455449 -169.720239,108.453844 -169.833528,112.452245 -173.831924,112.338956 -175.779522,110.272228 -175.655507,106.274151 -173.605356,104.342170 -173.605356,104.342170"/>
  <node id="2506655983" x="-252.141235" y="148.02243" shape="-254.063860,143.984669 -250.064601,144.061673 -248.139516,146.025871 -248.142957,150.025869 -250.225025,152.063239 -254.224157,151.979883 -254.063860,143.984669 -254.063860,143.984669"/>
  <node id="2506655984" x="-235.026237" y="130.714973" shape="-236.981858,126.693090 -232.982103,126.737346 -230.971976,128.827391 -231.083615,132.825833 -235.082056,132.714194 -239.081173,132.601106 -238.968105,128.602704 -236.981858,126.693090 -236.981858,126.693090"/>
  <node id="2506655987" x="-347.930228" y="84.976568" shape="-349.870373,80.947196 -345.870817,81.006829 -343.882132,83.075801 -343.980756,87.074585 -345.987432,89.004662 -349.987026,88.947661 -349.930025,84.948067 -349.870373,80.947196 -349.870373,80.947196"/>
  <node id="2506655989" x="-251.798854" y="130.240672" shape="-253.718582,126.466960 -249.719496,126.552511 -247.743918,128.354539 -247.856986,132.352941 -249.876229,134.278433 -253.875488,134.201429 -253.798483,130.202170 -253.718582,126.466960 -253.718582,126.466960"/>
  <node id="2506655990" x="-256.150837" y="357.697043" shape="-258.078788,353.661822 -254.079431,353.733550 -252.132148,355.734866 -252.169882,359.734688 -259.317274,360.855156 -260.577190,357.058761 -258.078788,353.661822 -258.078788,353.661822"/>
  <node id="2506655992" x="-172.691918" y="183.209058" shape="-174.667613,179.196998 -170.667687,179.221266 -170.713171,187.219614 -174.713115,187.198389 -176.693698,185.205494 -176.690135,181.205495 -174.667613,179.196998 -174.667613,179.196998"/>
  <node id="2506655995" x="-145.456381" y="163.36924" shape="-154.180130,150.351610 -136.680166,150.386923 -136.698527,164.297946 -146.790522,164.859229 -154.197947,164.440467 -156.410101,156.246194 -154.180130,150.351610 -154.180130,150.351610"/>
  <node id="2506655997" x="-177.525112" y="72.358667" shape="-183.122218,69.534804 -177.240959,70.378956 -176.521305,70.628820 -175.656381,71.130723 -177.263829,74.341526 -177.663996,74.590418 -188.435464,78.448609 -190.597629,75.083339 -190.467948,69.540881 -183.122218,69.534804 -183.122218,69.534804"/>
  <node id="2506656001" x="-225.605994" y="236.835415" shape="-229.603951,234.831333 -221.604339,234.838728 -221.607651,238.838726 -223.645455,240.854903 -227.645261,240.815539 -229.608033,238.831331 -229.603951,234.831333 -229.603951,234.831333"/>
  <node id="2506656005" x="-354.583192" y="123.971793" shape="-356.489161,119.926143 -352.490253,120.019628 -350.535149,122.070912 -350.633662,126.069699 -352.678246,128.017925 -356.677130,127.923429 -356.489161,119.926143 -356.489161,119.926143"/>
  <node id="2506656006" x="-251.719039" y="126.509736" shape="-253.649970,122.475941 -249.650562,122.544714 -249.719335,126.544122 -249.799311,130.283448 -253.798397,130.197897 -255.767042,128.410701 -255.668613,124.411913 -253.649970,122.475941 -253.649970,122.475941"/>
  <node id="2506656007" x="-225.766013" y="253.094895" shape="-227.726552,249.075407 -223.726746,249.114771 -221.763963,251.099000 -221.768067,255.098998 -223.802512,257.112937 -227.802347,257.076521 -229.767951,255.091015 -229.764072,251.091017 -227.726552,249.075407 -227.726552,249.075407"/>
  <node id="2506656008" x="-172.490545" y="148.090934" shape="-174.467675,144.079580 -170.467740,144.102418 -168.566225,145.946240 -168.420198,149.943573 -170.512132,152.101655 -174.512074,152.080097 -176.492264,150.087493 -176.488823,146.087495 -174.467675,144.079580 -174.467675,144.079580"/>
  <node id="2506656010" x="-169.877777" y="341.468407" shape="-171.832455,337.446065 -167.832710,337.491259 -167.921255,345.489852 -171.921019,345.446492 -173.897466,343.428534 -173.857692,339.428732 -171.832455,337.446065 -171.832455,337.446065"/>
  <node id="2506656013" x="-255.52259" y="324.900609" shape="-257.443240,320.861908 -253.444019,320.940869 -251.502835,322.940617 -251.542743,326.940418 -253.604927,328.940729 -257.604088,328.858811 -257.443240,320.861908 -257.443240,320.861908"/>
  <node id="2506656014" x="-170.06251" y="358.509188" shape="-172.019032,354.487743 -168.019268,354.531103 -166.043851,356.546949 -166.081523,360.546771 -170.081346,360.509099 -174.081199,360.471365 -174.043465,356.471543 -172.019032,354.487743 -172.019032,354.487743"/>
  <node id="2506656016" x="-255.169701" y="307.027383" shape="-257.097710,302.992190 -253.098352,303.063860 -251.150065,305.067146 -251.189730,309.066950 -253.249051,311.066084 -257.248272,310.987123 -257.097710,302.992190 -257.097710,302.992190"/>
  <node id="2506656019" x="-255.84445" y="340.613554" shape="-257.762113,336.573434 -253.762952,336.655352 -251.824761,338.653427 -251.864535,342.653229 -253.916499,344.648775 -257.915856,344.577047 -257.844128,340.577690 -257.762113,336.573434 -257.762113,336.573434"/>
  <node id="2506656020" x="-169.072158" y="269.424898" shape="-173.051931,267.384945 -169.052131,267.424998 -167.072290,269.447880 -167.118255,273.447616 -171.117991,273.401652 -173.091984,271.384744 -173.051931,267.384945 -173.051931,267.384945"/>
  <node id="2506656021" x="-341.654369" y="124.290302" shape="-342.604809,122.266281 -341.605113,122.290909 -334.607104,122.463814 -334.705905,126.462593 -335.660544,128.422379 -338.748256,130.965218 -342.703322,126.265067 -343.198225,125.561722 -342.604809,122.266281 -342.604809,122.266281"/>
  <node id="2506656022" x="-254.829459" y="288.041105" shape="-256.748894,284.001827 -252.749697,284.081990 -250.809764,286.080991 -250.849550,290.080793 -252.901450,292.076298 -256.900808,292.004628 -256.829138,288.005270 -256.748894,284.001827 -256.748894,284.001827"/>
  <node id="2506656024" x="-169.502885" y="307.87692" shape="-171.459152,303.855351 -167.459390,303.898965 -167.503004,307.898727 -167.547157,311.898751 -171.546913,311.854601 -173.522521,309.837157 -173.482856,305.837353 -171.459152,303.855351 -171.459152,303.855351"/>
  <node id="2506656025" x="-146.01953" y="358.735636" shape="-153.005996,354.712044 -139.006076,354.759274 -138.952245,362.615518 -152.950204,362.854588 -153.018509,358.855171 -153.019490,358.712021 -153.005996,354.712044 -153.005996,354.712044"/>
  <node id="2506656028" x="-169.295871" y="288.891923" shape="-171.249774,284.869205 -167.250038,284.915169 -167.339604,292.913492 -171.339366,292.869878 -173.315566,290.852037 -173.275780,286.852235 -171.249774,284.869205 -171.249774,284.869205"/>
  <node id="2506656029" x="-253.507065" y="218.534638" shape="-255.428872,214.496488 -251.429629,214.574302 -249.505207,216.538358 -249.508926,220.538356 -251.583629,222.572013 -255.582904,222.495811 -255.506702,218.496537 -255.428872,214.496488 -255.428872,214.496488"/>
  <node id="2506656031" x="-190.798719" y="253.130768" shape="-184.595788,249.319777 -183.518726,253.172041 -183.530748,253.551012 -184.849816,257.327261 -191.800770,255.129741 -191.796667,251.129743 -184.595788,249.319777 -184.595788,249.319777"/>
  <node id="2506656034" x="-172.890264" y="218.609594" shape="-174.866678,214.597888 -170.866748,214.621439 -170.913043,222.620903 -174.912979,222.598156 -176.892122,220.605874 -176.888403,216.605876 -174.866678,214.597888 -174.866678,214.597888"/>
  <node id="2506656035" x="-252.853421" y="183.137647" shape="-254.774092,179.098956 -250.774871,179.177896 -248.851641,181.141211 -248.855204,185.141210 -250.923462,187.171908 -254.922854,187.102170 -254.853117,183.102778 -254.774092,179.098956 -254.774092,179.098956"/>
  <node id="2506656036" x="-172.783968" y="200.556177" shape="-174.762715,196.545621 -170.762771,196.566846 -170.783996,200.566790 -170.807554,204.567883 -174.807484,204.544332 -176.785276,202.553559 -176.782658,198.553560 -174.762715,196.545621 -174.762715,196.545621"/>
  <node id="2506656037" x="-254.137363" y="253.067382" shape="-256.067667,249.033287 -252.068269,249.102682 -250.135425,251.071262 -250.139304,255.071260 -252.215598,257.105552 -256.214840,257.027696 -256.067667,249.033287 -256.067667,249.033287"/>
  <node id="2506656038" x="-348.208379" y="104.493591" shape="-350.151175,100.465497 -346.151581,100.522498 -344.156824,102.600208 -344.262739,106.598805 -348.562650,108.951673 -351.987407,106.885024 -350.151175,100.465497 -350.151175,100.465497"/>
  <node id="2506656040" x="-251.384556" y="107.058272" shape="-253.316906,103.025156 -249.317474,103.092522 -249.384840,107.091955 -249.453625,111.092067 -253.453033,111.023294 -255.436111,108.951655 -255.330196,104.953058 -253.316906,103.025156 -253.316906,103.025156"/>
  <node id="2506656041" x="-254.439211" y="268.572427" shape="-256.360976,264.534257 -252.361734,264.612113 -250.419548,266.612245 -250.459268,270.612048 -252.519776,272.611705 -256.518973,272.531542 -256.360976,264.534257 -256.360976,264.534257"/>
  <node id="2506656042" x="-253.156231" y="200.503575" shape="-255.086190,196.469314 -251.086798,196.539052 -249.154923,198.506193 -249.157541,202.506192 -251.234424,204.541725 -255.233667,204.463911 -255.086190,196.469314 -255.086190,196.469314"/>
  <node id="2506656043" x="-225.909507" y="268.85574" shape="-227.873008,264.837698 -223.873173,264.874114 -221.889681,266.895894 -221.929734,270.895693 -229.929170,270.815922 -229.889450,266.816119 -227.873008,264.837698 -227.873008,264.837698"/>
  <node id="2506656045" x="-145.376326" y="126.37485" shape="-147.033982,125.255843 -136.623865,125.396624 -136.630860,130.878100 -147.635193,133.295653 -154.130851,130.860463 -154.126322,126.366031 -154.126299,126.353079 -154.123811,125.353082 -147.033982,125.255843 -147.033982,125.255843"/>
  <node id="2506656047" x="-172.583546" y="165.346686" shape="-174.561959,161.335965 -170.562017,161.357523 -170.583575,165.357465 -170.607851,169.358746 -174.607777,169.334478 -176.585396,167.342982 -176.581693,163.342984 -174.561959,161.335965 -174.561959,161.335965"/>
  <node id="2506656049" x="-167.873141" y="147.922255" shape="-162.446265,143.795244 -160.286554,147.162089 -160.345046,148.490034 -162.271164,151.995753 -168.799461,149.957429 -168.945488,145.960095 -162.446265,143.795244 -162.446265,143.795244"/>
  <node id="2506656050" x="-169.700248" y="325.756906" shape="-171.655976,321.735075 -167.656220,321.779225 -167.700370,325.778981 -167.745570,329.779248 -171.745315,329.734054 -173.720003,327.716898 -173.680095,323.717097 -171.655976,321.735075 -171.655976,321.735075"/>
  <node id="2506656053" x="-172.401321" y="132.463496" shape="-174.287230,128.408456 -170.288834,128.521745 -170.424191,136.474850 -174.424126,136.452012 -176.455582,134.351078 -176.343943,130.352636 -174.287230,128.408456 -174.287230,128.408456"/>
  <node id="2506656054" x="-251.052861" y="87.365921" shape="-252.980348,83.330479 -248.980999,83.402666 -249.120511,91.399037 -253.119943,91.331671 -255.100957,89.266688 -255.002333,85.267904 -252.980348,83.330479 -252.980348,83.330479"/>
  <node id="2506656056" x="-252.500792" y="165.272705" shape="-254.417002,161.231896 -250.417870,161.315252 -248.498942,163.276409 -248.502645,167.276407 -250.580121,169.311396 -254.579342,169.232456 -254.500403,165.233235 -254.417002,161.231896 -254.417002,161.231896"/>
  <node id="2506656057" x="-226.426534" y="106.700263" shape="-228.375977,102.675381 -224.376294,102.725780 -222.366449,104.825240 -222.490464,108.823317 -226.488542,108.699302 -230.487574,108.573215 -230.361520,104.575202 -228.375977,102.675381 -228.375977,102.675381"/>
  <node id="2506656058" x="-234.757613" y="106.43759" shape="-236.713741,102.415953 -232.713980,102.459705 -230.696573,104.564638 -230.822627,108.562651 -232.801992,110.459473 -236.801747,110.415217 -236.713741,102.415953 -236.713741,102.415953"/>
  <node id="2506656059" x="-253.855216" y="236.806582" shape="-255.778652,232.769207 -251.779377,232.845409 -249.853177,234.810666 -249.857259,238.810664 -251.924912,240.840677 -255.924310,240.771282 -255.854915,236.771884 -255.778652,232.769207 -255.778652,232.769207"/>
  <node id="2506666633" x="-354.838263" y="134.765868" shape="-356.743209,130.719736 -352.744325,130.814232 -352.931144,138.810976 -356.930078,138.718628 -358.891305,136.656067 -358.782247,132.657554 -356.743209,130.719736 -356.743209,130.719736"/>
  <node id="2506666634" x="-355.605256" y="167.978834" shape="-357.512375,163.933726 -353.513441,164.026074 -353.605789,168.025008 -353.698825,172.024266 -357.697743,171.931238 -359.643757,169.899903 -359.565212,165.900675 -357.512375,163.933726 -357.512375,163.933726"/>
  <node id="2506666661" x="-387.360049" y="47.900277" shape="-390.741442,44.340235 -387.298472,44.400819 -383.297891,44.472614 -383.423495,51.471487 -385.436398,51.937549 -389.435676,51.861561 -390.864596,51.339152 -390.741442,44.340235 -390.741442,44.340235"/>
  <node id="2506667429" x="-201.057898" y="373.879749" shape="-203.015706,370.695824 -199.016060,370.749048 -197.026661,371.943481 -197.090142,375.942978 -199.101130,377.901075 -203.100898,377.857959 -203.057782,373.858191 -203.015706,370.695824 -203.015706,370.695824"/>
  <node id="2506667430" x="-201.015882" y="370.722436" shape="-197.613862,367.819634 -196.652428,371.702371 -199.058074,373.906361 -203.057720,373.853137 -205.028367,372.697268 -205.003239,368.697347 -197.613862,367.819634 -197.613862,367.819634"/>
  <node id="2506667432" x="-249.506555" y="388.483902" shape="-251.433454,384.448179 -247.434116,384.520949 -245.465673,386.567846 -245.549181,390.566974 -247.581055,392.520293 -251.580368,392.446136 -251.433454,384.448179 -251.433454,384.448179"/>
  <node id="2506667438" x="-165.784829" y="374.444439" shape="-174.316321,367.288397 -173.633686,367.293755 -164.740495,372.738752 -164.613808,372.823110 -163.803143,373.408620 -165.817681,376.444169 -166.145186,376.651279 -174.502716,376.301488 -175.248876,370.995022 -174.316321,367.288397 -174.316321,367.288397"/>
  <node id="2506667440" x="-146.128797" y="378.525411" shape="-152.975158,374.267789 -138.984847,374.788570 -139.132169,382.531306 -153.132164,382.519513 -153.128795,378.519514 -153.123952,378.265021 -152.975158,374.267789 -152.975158,374.267789"/>
  <node id="2506667441" x="-201.101246" y="377.901053" shape="-203.058014,373.879727 -199.058246,373.922843 -197.063608,375.978169 -197.140356,379.977433 -199.147469,381.705845 -203.147172,381.657098 -203.058014,373.879727 -203.058014,373.879727"/>
  <node id="2506667442" x="-159.895954" y="378.697738" shape="-164.399585,372.977834 -158.921065,376.685378 -158.724933,377.076409 -158.871000,380.685065 -171.735385,384.473488 -174.644037,384.393863 -174.573047,380.414326 -174.495720,376.415074 -164.399585,372.977834 -164.399585,372.977834"/>
  <node id="2506667443" x="-201.247761" y="389.491625" shape="-203.196159,385.466237 -199.196490,385.517674 -199.296049,393.515407 -203.295759,393.467264 -205.288643,391.407681 -205.205135,387.408553 -203.196159,385.466237 -203.196159,385.466237"/>
  <node id="2506667444" x="-201.147321" y="381.681471" shape="-203.101098,377.876679 -199.101395,377.925426 -197.095283,379.789122 -197.202219,383.787692 -199.198923,385.706859 -203.198592,385.655422 -203.101098,377.876679 -203.101098,377.876679"/>
  <node id="2506667445" x="-201.476778" y="408.518311" shape="-203.428490,404.494529 -199.428780,404.542672 -197.424039,406.627462 -197.532456,410.625993 -205.504916,410.461017 -205.447825,406.461424 -203.428490,404.494529 -203.428490,404.494529"/>
  <node id="2506667448" x="-146.163126" y="411.822379" shape="-153.157115,407.811877 -139.157130,407.832890 -139.163134,411.832885 -139.174530,415.842270 -153.174473,415.802456 -153.157115,407.811877 -153.157115,407.811877"/>
  <node id="4621151989" x="-227.487741" y="653.964641" shape="-231.453688,651.897937 -227.454249,651.964921 -223.453200,652.035268 -223.523518,656.034650 -225.540614,657.990644 -229.540267,657.937944 -231.520673,655.897376 -231.453688,651.897937 -231.453688,651.897937"/>
  <node id="5041458565" x="-174.589307" y="382.394612"/>
  <node id="5041458566" x="-183.464215" y="382.15438"/>
  <node id="5041458567" x="-174.534384" y="378.4147"/>
  <node id="5041458568" x="-183.397437" y="378.240798"/>
  <node id="5041458569" x="-174.469863" y="374.301759"/>
  <node id="5041458570" x="-183.332541" y="374.161088"/>
  <node id="5041488830" x="-202.417945" y="79.436802"/>
  <node id="5041488831" x="-213.944999" y="79.351669"/>
  <node id="5533394548" x="-273.489725" y="653.187232" shape="-272.181227,648.910804 -269.456502,651.255105 -269.524090,655.254534 -270.029163,656.019989 -273.679593,657.655336 -277.497154,655.172305 -277.482241,651.172333 -276.125768,649.574577 -272.181227,648.910804 -272.181227,648.910804"/>
  <node id="5533394551" x="-308.482241" y="678.495362" shape="-310.378265,674.445042 -306.379599,674.548351 -304.459061,676.542409 -304.505971,680.542134 -306.580177,682.542849 -310.578993,682.445505 -310.481649,678.446690 -310.378265,674.445042 -310.378265,674.445042"/>
  <node id="5533394561" x="321.383004" y="60.59649" shape="319.453150,56.562179 323.452540,56.632020 325.445132,57.168792 325.319589,64.167666 317.321274,64.024660 317.446004,57.025771 319.453150,56.562179 319.453150,56.562179"/>
  <node id="5533394564" x="313.254397" y="-26.438063" shape="311.267340,-30.444508 315.267319,-30.431576 317.247138,-28.452515 317.261603,-24.452541 315.266385,-22.444079 311.266403,-22.432083 309.261794,-24.423337 309.247054,-28.423310 311.267340,-30.444508 311.267340,-30.444508"/>
  <node id="5533394567" x="266.74116" y="-26.266662" shape="264.763869,-30.277936 268.763805,-30.255259 270.733763,-28.281388 270.748503,-24.281415 268.761677,-22.276986 264.761730,-22.256443 262.748724,-24.251605 262.733653,-28.251576 264.763869,-30.277936 264.763869,-30.277936"/>
  <node id="5533394568" x="322.903486" y="-26.472956" shape="320.955089,-30.498344 324.954759,-30.446906 324.903321,-26.447237 324.833340,-22.438645 320.833950,-22.508486 318.910745,-24.458504 318.896280,-28.458478 320.955089,-30.498344 320.955089,-30.498344"/>
  <node id="5533394569" x="186.918002" y="58.185161" shape="188.867452,54.160283 190.980367,54.757744 190.854340,61.756609 182.856542,61.613650 182.980721,54.614752 184.867770,54.210674 188.867452,54.160283 188.867452,54.160283"/>
  <node id="5533394570" x="186.692994" y="40.325662" shape="182.732681,38.248182 190.730924,38.403393 190.653567,42.402645 188.743226,44.300149 184.743544,44.350540 182.654823,42.247425 182.732681,38.248182 182.732681,38.248182"/>
  <node id="5533394571" x="166.360126" y="57.820407" shape="164.386755,53.807203 168.386666,53.833788 170.421586,54.391918 170.297407,61.390816 166.298036,61.319856 162.298480,61.248677 162.423039,54.249785 164.386755,53.807203 164.386755,53.807203"/>
  <node id="5533394574" x="217.569844" y="-26.463824" shape="213.597365,-28.517944 217.596996,-28.463640 221.596959,-28.408650 221.541974,-24.409028 219.536110,-22.447134 215.536252,-22.480797 213.543060,-24.518313 213.597365,-28.517944 213.597365,-28.517944"/>
  <node id="5533394577" x="181.264847" y="-26.956752" shape="183.237271,-30.970421 185.291631,-28.902263 185.237326,-24.902632 181.237695,-24.956936 177.237700,-25.011993 177.292752,-29.011615 179.237366,-30.942893 183.237271,-30.970421 183.237271,-30.970421"/>
  <node id="5533394578" x="167.049339" y="-27.152418"/>
  <node id="5533394579" x="239.40397" y="-26.163658" shape="237.486710,-30.203969 241.485863,-30.121653 243.396406,-28.178715 243.411477,-24.178744 241.320845,-22.123164 237.321699,-22.205862 235.376855,-24.218832 235.431840,-28.218454 237.486710,-30.203969 237.486710,-30.203969"/>
  <node id="5533394583" x="134.860108" y="149.032922" shape="132.916570,145.005186 136.916174,145.061450 138.892484,147.099028 138.826649,151.098486 136.803867,153.060552 132.804259,153.004507 130.559799,150.260662 131.297731,146.329319 132.916570,145.005186 132.916570,145.005186"/>
  <node id="5533394585" x="230.777156" y="58.974921" shape="226.840818,55.403473 234.838457,55.546243 234.714602,62.545147 232.606032,63.056001 228.609618,62.886670 226.714791,62.402338 226.840818,55.403473 226.840818,55.403473"/>
  <node id="5533394586" x="-32.182386" y="83.186688" shape="-30.193383,79.181208 -28.215751,81.121305 -28.150099,85.120766 -30.171179,87.181065 -34.171163,87.192280 -34.182378,83.192296 -34.193368,79.192198 -30.193383,79.181208 -30.193383,79.181208"/>
  <node id="5533394587" x="-10.855331" y="82.836598"/>
  <node id="5533394588" x="-11.70063" y="145.345007"/>
  <node id="5533394589" x="-32.007462" y="145.575339"/>