<?xml version='1.0' encoding='UTF-8'?>
<nodes>
  <node id="1801079793" x="-653.110688" y="-59.018558"/>
  <node id="1801079971" x="-653.461879" y="-49.827068" shape="-655.307699,-53.900512 -651.310616,-53.747791 -649.412763,-51.725661 -649.513535,-47.726931 -653.512265,-47.827703 -657.511496,-47.929544 -657.409669,-51.928247 -655.307699,-53.900512 -655.307699,-53.900512"/>
  <node id="1801080023" x="-673.332897" y="-50.333086"/>
  <node id="1801080069" x="-652.902126" y="-79.821587" shape="-656.865580,-81.893068 -648.867790,-81.751388 -648.937684,-77.751998 -650.942327,-75.801738 -654.942126,-75.841838 -656.937383,-77.893713 -656.865580,-81.893068 -656.865580,-81.893068"/>
  <node id="1801083124" x="-582.810976" y="327.235676" shape="-586.757380,325.131896 -578.761880,325.337039 -578.862609,329.335771 -580.722399,331.190148 -584.721407,331.279220 -586.861843,329.130531 -586.757380,325.131896 -586.757380,325.131896"/>
  <node id="1801083132" x="-507.432731" y="257.619782" shape="-509.381005,253.594334 -505.381337,253.645894 -503.488133,255.512616 -503.380239,259.511160 -505.489767,261.647795 -509.489364,261.590961 -509.381005,253.594334 -509.381005,253.594334"/>
  <node id="1801083146" x="-507.332053" y="249.809943"/>
  <node id="1801083189" x="-573.925163" y="327.459511" shape="-575.887300,323.440803 -571.887479,323.478576 -569.875114,325.562909 -569.977852,329.561589 -577.974259,329.358148 -577.873530,325.359416 -575.887300,323.440803 -575.887300,323.440803"/>
  <node id="1801083190" x="-582.393054" y="346.58637" shape="-580.478645,342.544707 -578.535080,344.324504 -578.268777,348.315630 -586.250564,348.849028 -586.517686,344.857957 -584.477739,342.629845 -580.478645,342.544707 -580.478645,342.544707"/>
  <node id="1801083205" x="-500.910965" y="267.788924"/>
  <node id="1801083207" x="-501.391309" y="286.244492" shape="-503.286559,282.193810 -499.287913,282.297883 -497.328540,284.375292 -497.458288,288.373187 -501.456183,288.243440 -505.454894,288.111918 -505.323400,284.114080 -503.286559,282.193810 -503.286559,282.193810"/>
  <node id="1801083238" x="-507.575116" y="267.639787" shape="-509.518080,263.611774 -505.518483,263.668608 -503.531371,265.729781 -503.620864,269.728780 -507.619863,269.639286 -511.625482,269.535712 -511.522076,265.537049 -509.518080,263.611774 -509.518080,263.611774"/>
  <node id="1801083259" x="-481.20173" y="256.908563" shape="-480.054664,252.696088 -478.403019,260.396717 -482.313027,261.240424 -485.145816,259.016688 -485.254681,255.018169 -483.966787,253.529929 -480.054664,252.696088 -480.054664,252.696088"/>
  <node id="2371834382" x="836.398733" y="1376.523081" shape="834.581210,1372.436933 838.577138,1372.617373 838.219385,1380.607837 834.223320,1380.430456 832.221472,1378.120107 832.614756,1374.139488 834.581210,1372.436933 834.581210,1372.436933"/>
  <node id="2371834436" x="739.377539" y="1345.107059" shape="735.626794,1342.671507 739.601611,1343.119651 739.803534,1343.152953 743.711745,1344.004943 742.859755,1347.913154 740.868873,1349.323209 736.899420,1348.829817 735.178651,1346.646324 735.626794,1342.671507 735.626794,1342.671507"/>
  <node id="2371834461" x="736.697001" y="1366.672586" shape="735.205667,1362.456436 739.175120,1362.949828 740.874262,1365.075560 740.480978,1369.056179 738.191094,1370.887759 734.221318,1370.396964 734.712113,1366.427189 735.205667,1362.456436 735.205667,1362.456436"/>
  <node id="2371834515" x="726.122033" y="1269.514015" shape="724.238882,1265.457694 728.237200,1265.573702 728.121192,1269.572019 728.004124,1273.570828 724.005837,1273.453776 722.032552,1271.324028 722.220334,1267.328438 724.238882,1265.457694 724.238882,1265.457694"/>
  <node id="2371834518" x="725.494517" y="1290.948678" shape="723.612426,1286.891865 727.610713,1287.008917 727.377213,1295.005211 723.378908,1294.888754 721.405679,1292.760143 721.592042,1288.764487 723.612426,1286.891865 723.612426,1286.891865"/>
  <node id="2371834520" x="724.899978" y="1311.36102" shape="723.017282,1307.304487 727.015587,1307.420944 726.899130,1311.419248 726.781104,1315.418281 722.782845,1315.300277 720.812296,1313.175091 720.996112,1309.179316 723.017282,1307.304487 723.017282,1307.304487"/>
  <node id="2371834557" x="723.14527" y="1343.27694" shape="721.494705,1339.120543 725.480048,1339.462650 727.344158,1341.737675 726.896015,1345.712492 724.719641,1347.462792 720.741211,1347.047948 721.494705,1339.120543 721.494705,1339.120543"/>
  <node id="2371834585" x="718.308861" y="1389.658982" shape="716.734490,1385.473130 720.712920,1385.887974 722.505053,1388.112382 722.063856,1392.087976 718.088263,1391.646779 714.112147,1391.204165 714.554686,1387.228720 716.734490,1385.473130 716.734490,1385.473130"/>
  <node id="2371834614" x="697.536347" y="1268.170562" shape="693.644309,1265.967828 701.625828,1266.360549 701.438046,1270.356139 699.384804,1272.242810 695.387623,1272.092677 693.438937,1269.962552 693.644309,1265.967828 693.644309,1265.967828"/>
  <node id="2371834617" x="696.731193" y="1289.607117" shape="694.882736,1285.534869 698.879917,1285.685002 700.820031,1287.795652 700.633668,1291.791308 698.578651,1293.679819 694.581507,1293.528704 694.882736,1285.534869 694.882736,1285.534869"/>
  <node id="2371834647" x="674.306705" y="1015.245249" shape="672.390029,1011.204661 676.389169,1011.287555 678.370475,1013.378226 678.238585,1017.376051 676.223470,1019.285795 672.224327,1019.202989 672.307134,1015.203846 672.390029,1011.204661 672.390029,1011.204661"/>
  <node id="2371834649" x="674.12637" y="1023.954542" shape="672.209605,1019.913996 676.208748,1019.996802 676.043488,1027.994920 672.044338,1027.912464 670.073293,1025.844666 670.182425,1021.846155 672.209605,1019.913996 672.209605,1019.913996"/>
  <node id="2371834650" x="673.93189" y="1033.38683" shape="672.014772,1029.346452 676.013922,1029.428908 677.995768,1031.520043 677.863647,1035.517860 673.865829,1035.385739 669.867336,1035.252146 670.000905,1031.254377 672.014772,1029.346452 672.014772,1029.346452"/>
  <node id="2371834687" x="658.577366" y="1200.840624" shape="658.949522,1196.384184 662.583096,1198.852125 662.571603,1202.852109 654.571684,1202.829219 654.583081,1198.829235 655.102652,1197.328393 658.949522,1196.384184 658.949522,1196.384184"/>
  <node id="2371834702" x="645.377034" y="1034.810704" shape="648.944421,1032.113715 649.675057,1036.046420 647.337219,1038.830365 643.337416,1038.790649 641.292658,1036.632206 641.469207,1032.636104 648.944421,1032.113715 648.944421,1032.113715"/>
  <node id="2371834704" x="644.53009" y="1120.106254" shape="642.569905,1116.086593 646.569708,1116.126309 648.593948,1118.239422 648.461870,1122.237241 645.748086,1124.409333 641.818424,1123.662498 642.569905,1116.086593 642.569905,1116.086593"/>
  <node id="2371834731" x="625.520218" y="1148.01023" shape="622.079989,1143.958708 629.079218,1144.062633 629.538787,1146.047807 629.501298,1150.047631 628.959978,1152.062149 621.960762,1151.957415 622.079989,1143.958708 622.079989,1143.958708"/>
  <node id="2371834735" x="624.731124" y="1200.74419" shape="621.291364,1196.692271 628.290580,1196.797005 628.736806,1198.755595 628.725409,1202.755579 628.171187,1204.795852 621.171963,1204.691641 621.231512,1200.692085 621.291364,1196.692271 621.291364,1196.692271"/>
  <node id="2371834739" x="623.371219" y="1283.029162" shape="619.957408,1278.955356 626.955812,1279.104791 626.870421,1283.103879 626.782516,1287.105073 619.784205,1286.951321 619.336027,1284.957172 619.407696,1280.957814 619.957408,1278.955356 619.957408,1278.955356"/>
  <node id="2371834859" x="605.068086" y="1282.701167" shape="601.105291,1280.628426 609.103278,1280.773157 609.031609,1284.772515 607.011118,1286.729147 603.011521,1286.672381 601.032216,1284.627758 601.105291,1280.628426 601.105291,1280.628426"/>
  <node id="2371835335" x="581.453921" y="1277.090024" shape="580.561388,1272.707857 584.424135,1273.746698 585.924747,1276.981780 584.223012,1280.601738 577.476432,1279.134427 577.431905,1275.134675 580.561388,1272.707857 580.561388,1272.707857"/>
  <node id="2371835513" x="578.944905" y="1349.982181" shape="576.984178,1345.962784 580.983986,1346.001961 582.556688,1347.344943 583.221765,1351.289265 575.620604,1352.973673 574.557131,1349.117635 576.984178,1345.962784 576.984178,1345.962784"/>
  <node id="2371836287" x="559.268073" y="1294.053363" shape="555.287616,1292.014745 559.287429,1292.053457 563.287525,1292.092749 563.248235,1296.092556 561.230899,1298.071735 557.231071,1298.034647 555.248904,1296.014557 555.287616,1292.014745 555.287616,1292.014745"/>
  <node id="2371836313" x="558.697698" y="1355.566246" shape="556.734872,1351.547874 560.734700,1351.584962 562.021999,1352.574754 563.085472,1356.430792 559.229435,1357.494265 555.373322,1358.557654 554.309946,1354.701590 556.734872,1351.547874 556.734872,1351.547874"/>
  <node id="2371836391" x="554.679251" y="1356.674402" shape="558.003627,1353.682994 559.067003,1357.539058 557.056832,1360.462160 553.075593,1360.849121 551.355895,1359.666943 550.291204,1355.811242 554.146906,1354.746551 558.003627,1353.682994 558.003627,1353.682994"/>
  <node id="2371836765" x="542.372487" y="1277.525098" shape="539.355281,1274.224118 546.349976,1275.480695 546.394503,1279.480447 544.305445,1281.557922 540.306003,1281.491159 537.921380,1277.958275 539.355281,1274.224118 539.355281,1274.224118"/>
  <node id="2371836784" x="542.099354" y="1293.887197" shape="540.166396,1289.854373 544.165838,1289.921136 546.118523,1291.926003 546.079811,1295.925815 542.290010,1298.355267 538.639291,1296.720564 540.166396,1289.854373 540.166396,1289.854373"/>
  <node id="2371836819" x="538.815858" y="1361.054825" shape="536.897201,1357.015177 540.896383,1357.096111 542.139214,1358.062284 543.203905,1361.917985 542.019223,1364.175474 538.241358,1365.489907 535.491407,1364.046150 534.428127,1360.190059 536.897201,1357.015177 536.897201,1357.015177"/>
  <node id="2371836889" x="528.357503" y="1312.293463" shape="526.368936,1310.312694 530.368869,1310.335849 530.357469,1312.305040 530.322968,1316.310545 526.323117,1316.276084 525.190449,1315.450957 523.931275,1311.654316 526.368936,1310.312694 526.368936,1310.312694"/>
  <node id="2371836928" x="525.214707" y="1272.357261" shape="521.936527,1269.315299 529.566873,1271.328354 528.649132,1275.221650 525.733646,1276.799187 521.972530,1275.437567 520.814229,1273.154628 521.936527,1269.315299 521.936527,1269.315299"/>
  <node id="2371836984" x="517.264396" y="1317.268938" shape="518.569398,1312.991442 519.493190,1313.391764 521.703411,1316.725668 518.367296,1319.214089 515.292397,1317.602436 515.046535,1316.984168 514.625401,1313.658439 518.569398,1312.991442 518.569398,1312.991442"/>
  <node id="2371837069" x="505.167077" y="1365.732709" shape="506.344082,1361.418238 509.143152,1363.685558 509.190443,1367.685278 507.917976,1369.258692 503.996830,1370.049018 501.190621,1367.779120 501.144074,1363.779391 502.421703,1362.202422 506.344082,1361.418238 506.344082,1361.418238"/>
  <node id="2371837071" x="504.837035" y="1343.046516" shape="504.540317,1338.584234 508.228830,1340.131772 509.223883,1342.177285 508.164529,1346.034456 505.717484,1347.431127 501.857616,1346.381641 502.907101,1342.521773 502.992779,1342.272747 504.540317,1338.584234 504.540317,1338.584234"/>
  <node id="2371837182" x="493.663901" y="1255.028566" shape="493.172585,1250.583500 495.796798,1254.357185 493.833568,1257.021356 492.921267,1257.137712 489.847988,1257.360690 489.508653,1253.375110 489.813059,1252.754579 493.172585,1250.583500 493.172585,1250.583500"/>
  <node id="2371837246" x="489.101591" y="1365.91967" shape="489.172611,1360.813079 493.078047,1363.873259 493.124594,1367.872988 490.146818,1370.926671 486.689138,1369.286825 486.012690,1363.025506 489.172611,1360.813079 489.172611,1360.813079"/>
  <node id="2371837537" x="476.074124" y="1373.691493" shape="475.413534,1369.865077 480.120284,1373.182269 479.952487,1376.997104 476.066752,1378.163623 472.491997,1376.368873 471.730933,1371.426631 475.413534,1369.865077 475.413534,1369.865077"/>
  <node id="2371837641" x="471.712409" y="1384.87301" shape="470.705741,1380.515646 474.594299,1381.453257 473.797948,1388.502423 469.864429,1389.228664 468.826277,1388.289184 467.247791,1384.613809 470.705741,1380.515646 470.705741,1380.515646"/>
  <node id="2371837664" x="469.701523" y="1308.908377" shape="471.159217,1304.680478 474.175267,1307.809453 473.176388,1311.678528 465.790986,1311.078100 465.619422,1307.081781 467.193821,1305.205482 471.159217,1304.680478 471.159217,1304.680478"/>
  <node id="2371840136" x="344.588408" y="1214.84087" shape="343.432125,1207.653172 347.403933,1208.127241 348.654249,1208.801919 351.230927,1211.861450 345.876747,1216.370636 345.824187,1216.413400 345.037921,1217.031290 342.602504,1214.603835 342.566364,1213.886229 343.432125,1207.653172 343.432125,1207.653172"/>
  <node id="2371841475" x="232.566435" y="1230.411938" shape="229.433227,1227.220856 236.752135,1229.031603 236.752510,1232.986477 232.775677,1234.879176 229.118189,1233.259674 228.133644,1231.003855 229.433227,1227.220856 229.433227,1227.220856"/>
  <node id="2371841490" x="231.023824" y="1240.456817" shape="231.483043,1236.286009 235.021977,1238.453127 235.025668,1242.453125 233.832394,1243.937037 229.924790,1244.791805 227.779119,1237.796289 231.483043,1236.286009 231.483043,1236.286009"/>
  <node id="2371841499" x="229.631081" y="1237.041148" shape="228.238066,1232.449000 229.421839,1232.573910 233.079327,1234.193412 231.860613,1237.211989 231.459825,1237.850899 228.156689,1238.722269 225.791949,1235.613888 228.238066,1232.449000 228.238066,1232.449000"/>
  <node id="2371841965" x="183.910852" y="1206.711539" shape="180.360243,1203.992500 188.138004,1205.251680 187.615030,1209.217345 184.120920,1211.178739 180.463133,1209.559913 179.605255,1207.920603 180.360243,1203.992500 180.360243,1203.992500"/>
  <node id="2371842641" x="121.91112" y="1375.768708" shape="121.002465,1371.389856 124.388130,1372.045212 126.376123,1375.516218 125.378889,1378.592637 121.732638,1380.237281 117.862845,1373.868321 121.002465,1371.389856 121.002465,1371.389856"/>
  <node id="2371843836" x="-36.55956" y="1160.967523" shape="-37.801076,1156.671171 -35.089323,1159.611646 -34.933147,1159.803572 -32.605245,1163.056397 -35.858070,1165.384299 -38.563703,1164.965449 -40.960386,1161.762964 -40.741551,1159.382925 -37.801076,1156.671171 -37.801076,1156.671171"/>
  <node id="237601031" x="470.739493" y="315.779078" shape="470.166845,311.343757 473.944161,312.659767 474.779467,313.861107 474.697854,317.860275 471.317159,320.213748 467.538356,318.902013 466.699507,317.697023 466.781146,313.697856 470.166845,311.343757 470.166845,311.343757"/>
  <node id="237601032" x="100.998996" y="308.231206" shape="99.062289,304.200181 103.061792,304.263225 105.038982,306.313261 104.957343,310.312428 102.935589,312.262286 98.936088,312.199129 96.959576,310.150344 97.040034,306.151153 99.062289,304.200181 99.062289,304.200181"/>
  <node id="237601033" x="-181.438898" y="301.877297" shape="-184.891143,297.836010 -177.891637,297.919149 -176.188965,301.903847 -176.209194,305.903796 -186.709059,305.850696 -186.688831,301.850747 -184.891143,297.836010 -184.891143,297.836010"/>
  <node id="237601035" x="-333.926093" y="300.397794" shape="-333.918636,298.397808 -329.918664,298.412721 -329.933577,302.412693 -332.030069,304.448114 -336.028735,304.344805 -337.883420,302.480956 -337.967019,298.481829 -333.967892,298.398231 -333.918636,298.397808 -333.918636,298.397808"/>
  <node id="237601043" x="-466.685263" y="324.18249" shape="-465.573966,319.850629 -463.193073,321.388817 -462.355011,325.300038 -463.884950,327.669357 -467.794569,328.514861 -470.174124,326.980320 -471.016843,323.070099 -469.483974,320.694336 -465.573966,319.850629 -465.573966,319.850629"/>
  <node id="237601097" x="-1252.463933" y="548.48621"/>
  <node id="237603352" x="-274.375474" y="1176.902911" shape="-276.335838,1172.883337 -272.336033,1172.922876 -272.342580,1175.971598 -272.375572,1176.922680 -274.327917,1178.902346 -274.850160,1179.088014 -278.326786,1178.997459 -278.421900,1174.998590 -276.335838,1172.883337 -276.335838,1172.883337"/>
  <node id="237603357" x="-274.140668" y="1153.14954" shape="-275.923102,1149.047964 -271.928868,1149.262647 -270.119682,1151.192074 -270.162104,1155.191849 -272.180304,1157.169114 -276.180109,1157.129575 -276.140570,1153.129771 -276.137785,1153.042198 -275.923102,1149.047964 -275.923102,1149.047964"/>
  <node id="237614025" x="621.941254" y="1348.116464" shape="618.529957,1344.040553 625.528268,1344.194305 625.379937,1352.169298 618.380749,1352.062703 617.938407,1350.110759 617.944109,1346.110763 618.529957,1344.040553 618.529957,1344.040553"/>
  <node id="237615807" x="-633.087189" y="560.389309" shape="-632.099098,556.027695 -629.005043,558.562814 -628.937503,562.056674 -631.931269,564.709477 -637.547120,560.059132 -635.499006,556.623258 -632.099098,556.027695 -632.099098,556.027695"/>
  <node id="237625077" x="-710.48542" y="-309.628054" shape="-712.409292,-313.665221 -708.410010,-313.589452 -706.429603,-313.063218 -706.542273,-306.064124 -710.541755,-306.128507 -714.542416,-306.194283 -714.427343,-313.193337 -712.409292,-313.665221 -712.409292,-313.665221"/>
  <node id="237625079" x="-708.278476" y="-426.116196" shape="-709.969189,-430.256424 -705.980721,-429.952903 -704.289798,-428.138682 -704.267281,-424.138745 -706.354604,-422.079029 -710.353886,-422.154798 -712.323516,-424.208934 -712.231310,-428.207871 -709.969189,-430.256424 -709.969189,-430.256424"/>
  <node id="237625087" x="-704.531737" y="-537.887069" shape="-706.429343,-541.936648 -702.430637,-541.834901 -700.506941,-539.836689 -700.557164,-535.837004 -702.643418,-533.833151 -706.641880,-533.944063 -708.560229,-535.945097 -708.502409,-539.944679 -706.429343,-541.936648 -706.429343,-541.936648"/>
  <node id="237625089" x="-701.694327" y="-649.398542" shape="-703.588529,-653.449715 -699.589910,-653.344607 -697.660591,-651.329598 -697.729241,-647.330187 -699.796721,-645.348963 -703.795427,-645.450710 -705.721182,-647.453178 -705.666731,-651.452807 -703.588529,-653.449715 -703.588529,-653.449715"/>
  <node id="237625091" x="-698.210502" y="-781.934144" shape="-700.104103,-785.985597 -696.105500,-785.879897 -694.180200,-783.872356 -694.241751,-779.872829 -696.316300,-777.882971 -700.314919,-777.988079 -702.238859,-779.991894 -702.181317,-783.991480 -700.104103,-785.985597 -700.104103,-785.985597"/>
  <node id="237625093" x="-695.264925" y="-893.364122" shape="-697.162733,-897.413607 -693.164022,-897.312059 -691.234807,-895.302717 -691.295978,-891.303185 -693.371324,-889.312669 -697.369927,-889.418369 -699.295299,-891.426059 -699.233599,-895.425583 -697.162733,-897.413607 -697.162733,-897.413607"/>
  <node id="237625095" x="-692.433064" y="-1004.876024" shape="-694.366925,-1008.908416 -690.367467,-1008.842548 -688.402822,-1006.814361 -688.464249,-1002.814833 -690.535256,-1000.826539 -694.533967,-1000.928087 -696.463431,-1002.937947 -696.401746,-1006.937471 -694.366925,-1008.908416 -694.366925,-1008.908416"/>
  <node id="237625103" x="-690.580315" y="-1117.373685" shape="-694.547963,-1119.437122 -686.550313,-1119.312520 -686.611246,-1115.312984 -688.646454,-1113.341293 -692.645912,-1113.407161 -694.611653,-1115.437629 -694.547963,-1119.437122 -694.547963,-1119.437122"/>
  <node id="237626089" x="712.557088" y="463.098463"/>
  <node id="237626109" x="709.496694" y="189.457773" shape="710.049967,181.734338 713.326488,184.028769 711.368348,190.681257 707.857830,190.604125 707.394915,190.221005 703.936904,184.998636 703.723861,184.099866 710.049967,181.734338 710.049967,181.734338"/>
  <node id="237626113" x="715.162824" y="177.919719"/>
  <node id="237627737" x="-769.56996" y="728.349926" shape="-771.251424,724.205933 -767.263644,724.518359 -765.228773,727.275639 -766.105818,731.178304 -768.555978,732.705594 -772.446105,731.774512 -771.251424,724.205933 -771.251424,724.205933"/>
  <node id="237635657" x="679.029559" y="-285.188423" shape="678.302791,-292.980843 684.827434,-290.445290 686.090769,-288.563228 685.966129,-281.564338 680.361178,-277.476303 673.658835,-279.495856 671.967867,-281.814626 672.093506,-288.813499 678.302791,-292.980843 678.302791,-292.980843"/>
  <node id="237635658" x="378.957478" y="-290.564" shape="377.207383,-294.679479 381.199804,-294.433363 383.019602,-293.991703 382.894067,-286.992828 380.898783,-286.535187 376.899210,-286.593668 374.895350,-287.136302 375.020893,-294.135176 377.207383,-294.679479 377.207383,-294.679479"/>
  <node id="237635660" x="211.539867" y="-293.565041" shape="209.622992,-297.605535 213.622138,-297.522837 215.602582,-296.992044 215.475841,-289.993191 207.478566,-290.136363 207.602421,-297.135267 209.622992,-297.605535 209.622992,-297.605535"/>
  <node id="237635661" x="110.049783" y="-295.378649" shape="109.100172,-299.748802 114.111429,-298.806919 113.986870,-291.808027 111.993321,-291.350913 107.993717,-291.407177 105.987649,-291.950958 106.113204,-298.949832 109.100172,-299.748802 109.100172,-299.748802"/>
  <node id="237635663" x="-171.041845" y="-300.419733" shape="-177.933073,-304.604345 -163.938017,-304.232296 -162.292041,-300.361160 -162.318817,-296.361249 -179.818425,-296.478396 -179.791649,-300.478306 -177.933073,-304.604345 -177.933073,-304.604345"/>
  <node id="237635664" x="-416.904036" y="-304.821731" shape="-418.811733,-308.866566 -414.812786,-308.774790 -413.399489,-308.260606 -413.522643,-301.261689 -416.965613,-301.322273 -420.966220,-301.394099 -420.840563,-308.392971 -418.811733,-308.866566 -418.811733,-308.866566"/>
  <node id="237635665" x="-487.695313" y="-306.011432" shape="-491.638122,-309.575736 -487.638646,-309.510973 -483.638205,-309.445070 -483.753507,-302.446020 -485.768346,-301.975741 -489.767686,-302.048444 -491.751456,-302.576653 -491.638122,-309.575736 -491.638122,-309.575736"/>
  <node id="237636365" x="635.125649" y="588.35504" shape="631.696910,584.293791 638.695816,584.417540 639.157112,586.419245 639.093163,590.418734 638.554085,592.416545 631.555189,592.292274 631.696910,584.293791 631.696910,584.293791"/>
  <node id="237639308" x="-193.450894" y="1357.202816" shape="-200.383728,1353.087502 -186.385646,1353.319226 -184.701910,1357.336131 -184.762854,1361.335666 -202.260822,1361.069037 -202.199878,1357.069501 -200.383728,1353.087502 -200.383728,1353.087502"/>
  <node id="237639310" x="-191.054271" y="1212.427058" shape="-190.874405,1201.134133 -181.656633,1206.162323 -184.121437,1216.542372 -203.003628,1217.923682 -204.628050,1213.294541 -202.767819,1205.513825 -190.874405,1201.134133 -190.874405,1201.134133"/>
  <node id="237639311" x="-185.955304" y="902.352043" shape="-192.879063,898.221478 -178.881524,898.484015 -178.956535,902.483311 -178.956835,902.498438 -179.040489,906.497564 -193.037427,906.204773 -192.879063,898.221478 -192.879063,898.221478"/>
  <node id="237639312" x="-188.023709" y="707.780797" shape="-191.455937,703.722495 -184.456927,703.840231 -182.774643,707.879804 -182.850077,711.879093 -193.348209,711.681078 -193.272775,707.681790 -191.455937,703.722495 -191.455937,703.722495"/>
  <node id="237639313" x="-177.982988" y="503.320328" shape="-184.911831,499.198298 -170.913980,499.443586 -170.984062,503.442972 -170.984568,503.469043 -171.069548,507.468140 -185.066388,507.170710 -184.911831,499.198298 -184.911831,499.198298"/>
  <node id="237639315" x="-172.384683" y="101.547325" shape="-179.373279,97.527434 -165.373336,97.567248 -165.384711,101.567232 -165.385016,101.615604 -165.424033,105.615414 -179.423367,105.478856 -179.373279,97.527434 -179.373279,97.527434"/>
  <node id="237639316" x="-171.774135" y="-99.668002" shape="-180.986814,-104.041394 -163.014299,-103.646415 -163.024162,-99.646427 -163.048653,-92.637464 -180.548546,-92.698626 -181.960220,-100.161641 -180.986814,-104.041394 -180.986814,-104.041394"/>
  <node id="237640629" x="-491.870664" y="-76.935386" shape="-493.797986,-80.970907 -489.798640,-80.898556 -489.870991,-76.899211 -489.947659,-72.897806 -493.946925,-72.974434 -495.905248,-75.006104 -495.834840,-79.005484 -493.797986,-80.970907 -493.797986,-80.970907"/>
  <node id="237641342" x="-407.43772" y="-639.961781" shape="-409.334716,-644.011646 -405.336026,-643.909297 -403.253439,-641.540322 -403.664318,-637.561481 -405.539167,-635.912646 -409.537896,-636.013457 -411.533560,-638.166205 -411.331685,-642.161108 -409.334716,-644.011646 -409.334716,-644.011646"/>
  <node id="237641348" x="-160.038149" y="-614.711896" shape="-166.931049,-618.893753 -152.935846,-618.527298 -153.040547,-614.528669 -153.049433,-614.314599 -153.276459,-610.321047 -167.253892,-611.115640 -166.931049,-618.893753 -166.931049,-618.893753"/>
  <node id="237642388" x="213.786885" y="-525.64956" shape="211.850259,-529.680624 215.849761,-529.617499 217.823796,-527.573969 217.748559,-523.574676 215.725543,-521.619472 211.726009,-521.680581 209.755757,-523.713066 209.819013,-527.712565 211.850259,-529.680624 211.850259,-529.680624"/>
  <node id="237642389" x="217.453676" y="-758.182733" shape="215.489716,-762.200551 219.489554,-762.164592 221.488755,-760.110979 221.417321,-756.111617 219.389813,-754.151434 215.390319,-754.215044 213.396976,-756.300398 213.513788,-760.298692 215.489716,-762.200551 215.489716,-762.200551"/>
  <node id="237642390" x="220.180135" y="-988.778196" shape="218.265492,-992.819748 222.264591,-992.734842 224.222606,-990.690898 224.135779,-986.691841 222.119309,-984.748357 218.119768,-984.808953 216.152376,-986.834705 216.208687,-990.834309 218.265492,-992.819748 218.265492,-992.819748"/>
  <node id="237642405" x="225.41441" y="-1235.31282" shape="223.507253,-1239.357910 227.506187,-1239.265600 229.436893,-1237.267207 229.391410,-1233.267466 227.329053,-1231.271268 223.329954,-1231.356174 221.382701,-1233.377537 221.447158,-1237.377018 223.507253,-1239.357910 223.507253,-1239.357910"/>
  <node id="237645742" x="925.760384" y="-976.110149" shape="923.797420,-981.049458 930.395412,-978.711402 929.730560,-974.051581 927.723440,-971.170877 921.125405,-973.508810 921.785077,-978.158791 923.797420,-981.049458 923.797420,-981.049458"/>
  <node id="237645743" x="675.227094" y="-979.166296" shape="673.229007,-983.167252 677.229006,-983.165339 679.251192,-981.117357 679.202401,-977.117654 677.181669,-975.143904 673.181925,-975.189201 671.187187,-977.248184 671.268660,-981.247354 673.229007,-983.167252 673.229007,-983.167252"/>
  <node id="237645745" x="464.198954" y="-983.480117" shape="460.243310,-985.566472 468.239056,-985.397818 468.157176,-981.398656 466.151725,-979.456849 462.152002,-979.503940 460.156483,-981.567415 460.243310,-985.566472 460.243310,-985.566472"/>
  <node id="237645749" x="-147.784123" y="-996.078809" shape="-154.679919,-1000.255888 -140.684466,-999.899132 -140.786396,-995.900431 -140.787364,-995.865810 -140.909078,-991.867662 -154.902596,-992.293661 -154.679919,-1000.255888 -154.679919,-1000.255888"/>
  <node id="237645754" x="-398.120892" y="-1000.355818" shape="-400.012097,-1004.408391 -396.013557,-1004.300325 -394.087287,-1002.287146 -394.155666,-998.287730 -396.225530,-996.305188 -400.224179,-996.409150 -402.151134,-998.417481 -402.089707,-1002.417009 -400.012097,-1004.408391 -400.012097,-1004.408391"/>
  <node id="237647478" x="-167.503073" y="-413.093716" shape="-174.390591,-417.284432 -160.395870,-416.899983 -160.505713,-412.901492 -160.507119,-412.855751 -160.643099,-408.858063 -174.635007,-409.333993 -174.390591,-417.284432 -174.390591,-417.284432"/>
  <node id="237647488" x="-164.177103" y="-531.622285" shape="-170.968518,-535.967015 -156.986001,-535.267564 -157.292771,-527.426338 -171.287195,-527.821418 -171.174315,-531.819825 -171.168361,-531.972011 -170.968518,-535.967015 -170.968518,-535.967015"/>
  <node id="237647491" x="-157.152962" y="-724.870041" shape="-163.904244,-729.276875 -149.928731,-728.449215 -150.254620,-720.697166 -164.250289,-721.045391 -164.150796,-725.044153 -164.140719,-725.283871 -163.904244,-729.276875 -163.904244,-729.276875"/>
  <node id="237647492" x="-154.704624" y="-766.211606" shape="-161.583927,-770.415793 -147.589986,-770.003957 -147.707653,-766.005688 -147.716867,-765.797776 -147.953342,-761.804772 -161.928855,-762.632432 -161.583927,-770.415793 -161.583927,-770.415793"/>
  <node id="237647495" x="-151.177075" y="-885.050456" shape="-158.051266,-889.262997 -144.057835,-888.834161 -144.299876,-880.842828 -158.293609,-881.261665 -158.173942,-885.259875 -158.051266,-889.262997 -158.051266,-889.262997"/>
  <node id="237647501" x="-144.896225" y="-1109.361209" shape="-151.811905,-1113.505285 -137.814906,-1113.215418 -137.897726,-1109.216275 -137.898417,-1109.186058 -137.998503,-1105.187311 -151.994119,-1105.537612 -151.811905,-1113.505285 -151.811905,-1113.505285"/>
  <node id="237647505" x="-142.156945" y="-1241.226206" shape="-149.047945,-1245.411194 -135.052909,-1245.038381 -135.241744,-1237.081329 -149.238710,-1237.372817 -149.155428,-1241.371950 -149.154463,-1241.412613 -149.047945,-1245.411194 -149.047945,-1245.411194"/>
  <node id="237650103" x="621.472748" y="1378.879361" shape="618.034065,1374.826527 625.033253,1374.933122 625.669462,1377.334178 625.226923,1381.309623 624.915675,1382.928590 617.916379,1382.829328 617.973100,1378.829730 618.034065,1374.826527 618.034065,1374.826527"/>
  <node id="237650104" x="623.816437" y="1262.178422" shape="620.376374,1258.126760 627.375598,1258.230971 627.871736,1260.293071 627.757898,1264.291450 627.230248,1266.252228 620.231844,1266.102793 620.376374,1258.126760 620.376374,1258.126760"/>
  <node id="237650107" x="627.212928" y="1034.008209" shape="623.784752,1029.946484 630.783641,1030.071204 631.297304,1032.186707 631.120755,1036.182809 630.653157,1038.059731 623.653928,1037.955806 623.713314,1033.956246 623.713484,1033.945849 623.784752,1029.946484 623.784752,1029.946484"/>