<?xml version="1.0" encoding="UTF-8"?>

<!-- generated on Wed Jan 26 09:27:41 2022 by SUMO duarouter Version 0.30.0
<?xml version="1.0" encoding="UTF-8"?>

<configuration xmlns:xsi="http://www.w3.org/2001/XMLSchema-instance" xsi:noNamespaceSchemaLocation="http://sumo.dlr.de/xsd/duarouterConfiguration.xsd">

    <input>
        <net-file value="sumo.net.xml"/>
        <trip-files value="trips.trips.xml"/>
    </input>

    <output>
        <output-file value="sumo.rou.xml"/>
    </output>

    <processing>
        <ignore-errors value="true"/>
    </processing>

    <time>
        <begin value="0.0"/>
        <end value="1000.0"/>
    </time>

    <report>
        <no-warnings value="true"/>
        <no-step-log value="true"/>
    </report>

</configuration>
-->

<routes xmlns:xsi="http://www.w3.org/2001/XMLSchema-instance" xsi:noNamespaceSchemaLocation="http://sumo.dlr.de/xsd/routes_file.xsd">
    <vehicle id="0" depart="0.00">
        <route edges="577120473_2 577120477_7 577120477_6 577120476_1 577120475_1 577120475_4 577120475_3 577120475_2 577120476_3 849652075_3 723528876 723528874 723528871 723528869 1009205825 1009205824_1 1009205824_2 1009205824_3 1009205824_4 723528870_1 723528870_4 723528870_3 243244293 243244310 1009205823_2 1009205823_3 72459949_1 72459949_35 72459949_25 72459949_3 72459949_21 72459949_26 72459949_34 72459949_4 889459732_1 889459732_2 889459734 22113123_4 795480097_1 795480097_2"/>
    </vehicle>
    <vehicle id="6" depart="1.80">
        <route edges="854991077_15 -854991077_15 795480099_1 795480099_2 72459949_35 577120435_1 577120435_2"/>
    </vehicle>
    <vehicle id="7" depart="2.10">
        <route edges="-854991077_13 -854991077_14 -854991077_3 22112647_1 22112647_2 863192277_1 863192277_2 863192277_5 863192277_3 863192277_4 -1009205824_4 -1009205824_3 -1009205824_2 -1009205824_1 -1009205825 -723528869"/>
    </vehicle>
    <vehicle id="17" depart="5.10">
        <route edges="72459949_26 -72459949_26 -72459949_21 -72459949_3 -72459949_25 -72459949_35 -72459949_1 -1009205823_3 577120423 577120425 -1009205823_1 -723528870_2 -723528870_3 -723528870_4 -723528870_1 -1009205824_4 -1009205824_3 -1009205824_2 -1009205824_1 -1009205825 -723528869 -723528871 -723528874"/>
    </vehicle>
    <vehicle id="19" depart="5.70">
        <route edges="577120475_1 577120475_4 577120475_3 577120475_2 577120476_3 849652075_3 723528876 723528874 723528871 723528869 1009205825"/>
    </vehicle>
    <vehicle id="20" depart="6.00">
        <route edges="577120449_1 577120447 -72459949_23 -72459949_22 -72459949_4 -72459949_34 -72459949_26 -72459949_21 -72459949_3 -72459949_25 -72459949_35 -72459949_1 -854991077_24 -854991077_11 -854991077_10 -854991077_9 -854991077_22 577120419_1 577120419_2 577120415"/>
    </vehicle>
    <vehicle id="21" depart="6.30">
        <route edges="22092326_1 22113123_2 22113123_4 22113123_3 72459949_34 72459949_4 72459949_22"/>
    </vehicle>
    <vehicle id="25" depart="7.50">
        <route edges="577120427 577120429 577120425 -1009205823_1 -723528870_2 -723528870_3 -723528870_4 -723528870_1 -1009205824_4 -1009205824_3 -1009205824_2 -1009205824_1 -1009205825 -723528869 723528867"/>
    </vehicle>
    <vehicle id="27" depart="8.10">
        <route edges="723528868 723528875 -723528876"/>
    </vehicle>
    <vehicle id="32" depart="9.60">
        <route edges="22092326_7 22092326_8 22118428_4 22118428_2 22118428_3 22118428_5 -72459949_38 585657199_1 585657199_6 585657199_3 585657199_4 585657199_5 585657199_2 22100679_8 22100679_3 660258992_1 660258992_2"/>
    </vehicle>
    <vehicle id="33" depart="9.90">
        <route edges="586164506_2 586164505_1 586164505_2 586164496 586164503"/>
    </vehicle>
    <vehicle id="34" depart="10.20">
        <route edges="691751487 863192277_3 863192277_4 723528870_1 723528870_4 723528870_3 243244293 243244310 1009205823_2 1009205823_3 72459949_1 72459949_35 72459949_25 72459949_3 72459949_21 72459949_26 72459949_34 72459949_4 889459732_1 889459732_2 889459734 22113123_4"/>
    </vehicle>
    <vehicle id="35" depart="10.50">
        <route edges="72459949_19 72459949_18 72459949_11 72459949_39 586164506_1 586164506_2 586164506_3"/>
    </vehicle>
    <vehicle id="36" depart="10.80">
        <route edges="723528868 723528875 723528874 723528871 723528869 1009205825 1009205824_1 1009205824_2 1009205824_3 1009205824_4 723528870_1 723528870_4 723528870_3 243244293 243244310 1009205823_2 1009205823_3 72459949_1 72459949_35 72459949_25 72459949_3 72459949_21 72459949_26 72459949_34 72459949_4 72459949_22 72459949_23 72459949_5 72459949_19 72459949_18 72459949_11 72459949_39"/>
    </vehicle>
    <vehicle id="40" depart="12.00">
        <route edges="872831463 1009205829 1009205830 577120464 1009205826 849652075_1 849652075_2 849652075_4 849652075_3 723528876 723528874 723528871 723528869 1009205825 1009205824_1 1009205824_2 1009205824_3 1009205824_4 723528870_1 723528870_4 723528870_3 243244293 243244310 1009205823_2 1009205823_3 854991077_23"/>
    </vehicle>
    <vehicle id="41" depart="12.30">
        <route edges="586164503 -72459949_18 -72459949_19 -72459949_5 -72459949_23 -72459949_22 -72459949_4 -72459949_34 -72459949_26 -72459949_21 -72459949_3 -72459949_25 -72459949_35 -72459949_1 854991077_23 -854991077_23"/>
    </vehicle>
    <vehicle id="44" depart="13.20">
        <route edges="577120447 -72459949_23 -72459949_22 -72459949_4 -72459949_34 -72459949_26 -72459949_21 -72459949_3 -72459949_25 -72459949_35 -72459949_1 -1009205823_3 577120423 577120425 -1009205823_1 -723528870_2 -723528870_3 -723528870_4 -723528870_1 -1009205824_4 -1009205824_3 -1009205824_2 -1009205824_1 -1009205825 -723528869 -723528871 -723528874 -723528876"/>
    </vehicle>
    <vehicle id="45" depart="13.50">
        <route edges="739870761_2 739870761_3 739870761_4 739870761_5 739870762_1 739870763 -72459949_5 -72459949_23 -72459949_22 -72459949_4 -72459949_34 -72459949_26 -72459949_21 -72459949_3 -72459949_25 -72459949_35 -72459949_1 854991077_23 854991077_15 854991077_19 854991077_4 854991077_18 854991077_17 854991077_20 243245597 243244313_4 243244307"/>
    </vehicle>
    <vehicle id="54" depart="16.20">
        <route edges="863192277_4 723528870_1 723528870_4 723528870_3 243244293 243244310 1009205823_2 1009205823_3 72459949_1 72459949_35 72459949_25 72459949_3 72459949_21 72459949_26 72459949_34 72459949_4 72459949_22 72459949_23 72459949_5 72459949_19 72459949_18 72459949_11 72459949_39 72459949_32 72459949_24 72459949_12"/>
    </vehicle>
    <vehicle id="57" depart="17.10">
        <route edges="72459949_7 789801129_1 789801129_2 789801131_1 789801132 22118428_3 586164524_1 586164524_2 586164524_3 586164524_4 586164523_2"/>
    </vehicle>
    <vehicle id="59" depart="17.70">
        <route edges="22118428_2 22118428_3 22118428_5 -72459949_38 -72459949_33 -72459949_20 789801129_1 789801129_2 789801129_3"/>
    </vehicle>
    <vehicle id="62" depart="18.60">
        <route edges="577120473_2 577120477_7 577120477_6 577120476_1 577120475_1 577120475_4 577120475_3 577120475_2 577120476_3 849652075_3 723528876 723528874 723528871 723528869 1009205825 1009205824_1 1009205824_2 1009205824_3 1009205824_4 723528870_1 723528870_4 723528870_3 243244293 243244310 1009205823_2 1009205823_3 -854991077_24 -854991077_11 -854991077_10 577120427 577120431"/>
    </vehicle>
    <vehicle id="63" depart="18.90">
        <route edges="243244306 243244305_5 243244296 243242210_4 243242210_3"/>
    </vehicle>
    <vehicle id="69" depart="20.70">
        <route edges="22113123_1 22092326_6 22092326_5 22092326_2 22092326_3 22092326_4 22092326_7 22092326_8 22118428_4 22118428_2 22118428_3 22118428_5 -72459949_38 585657199_1 585657199_6 585657199_3 585657199_4 585657199_5 585657199_2 22100679_8 22100679_3 660258992_1 22084209_2"/>
    </vehicle>
    <vehicle id="74" depart="22.20">
        <route edges="795480099_1 795480099_2 -72459949_1 -1009205823_3 577120423 577120425 -1009205823_1 -723528870_2 -723528870_3 -723528870_4 -723528870_1 -1009205824_4 -1009205824_3 -1009205824_2 -1009205824_1 -1009205825 -723528869 723528869"/>
    </vehicle>
    <vehicle id="79" depart="23.70">
        <route edges="577120427 577120429 577120425 -1009205823_1 -723528870_2 243244293 243244310 1009205823_2 1009205823_3 72459949_1 72459949_35 72459949_25 72459949_3 72459949_21 72459949_26 72459949_34 72459949_4 72459949_22 72459949_23 72459949_5 72459949_19 72459949_18 72459949_11 72459949_39 72459949_32 72459949_24"/>
    </vehicle>
    <vehicle id="90" depart="27.00">
        <route edges="577120423 577120425 -1009205823_1 -723528870_2 243244293 243244310 1009205823_2 1009205823_3 72459949_1 -72459949_1"/>
    </vehicle>
    <vehicle id="101" depart="30.30">
        <route edges="723528874 723528871 723528869 1009205825 1009205824_1 1009205824_2 1009205824_3 1009205824_4 723528870_1 723528870_4 723528870_3 243244293 243244310 1009205823_2 1009205823_3 72459949_1 72459949_35 72459949_25 72459949_3 72459949_21 577120441_1 577120441_3"/>
    </vehicle>
    <vehicle id="105" depart="31.50">
        <route edges="1009205827_1 -1009205827_1 1009205830 577120464 1009205826 849652075_1"/>
    </vehicle>
    <vehicle id="109" depart="32.70">
        <route edges="-1009205827_1 1009205830 577120464 1009205826 849652075_1 849652075_2 849652075_4 849652075_3 723528876 723528874 723528871 723528869 1009205825 1009205824_1 1009205824_2 1009205824_3 1009205824_4 723528870_1 723528870_4 723528870_3 243244293 243244310 1009205823_2 1009205823_3 72459949_1 72459949_35 72459949_25 72459949_3 72459949_21 72459949_26 72459949_34 72459949_4 889459732_1 889459732_2 889459734 22113123_4"/>
    </vehicle>
    <vehicle id="113" depart="33.90">
        <route edges="577120449_1 577120447 -72459949_23 -72459949_22 -72459949_4 -72459949_34 -72459949_26 -72459949_21 -72459949_3 -72459949_25 -72459949_35 -72459949_1 -1009205823_3 577120423 577120425 -1009205823_1 -723528870_2 -723528870_3 -723528870_4 -723528870_1 -1009205824_4 -1009205824_3 -1009205824_2 -1009205824_1 -1009205825 -723528869 -723528871 -723528874 -723528876 -849652075_3 849652075_3"/>
    </vehicle>
    <vehicle id="116" depart="34.80">
        <route edges="243244303_2 243244309_2 243244305_1 243244305_4 243244305_5 243244305_3 243244305_2 243244300 1009205825 1009205824_1 1009205824_2 1009205824_3 1009205824_4 723528870_1 723528870_4 723528870_3 243244293 243244310 1009205823_2 1009205823_3 -854991077_24 -854991077_11 -854991077_10 -854991077_9 -854991077_22 577120419_1 577120419_2 577120417 577120419_4 930246687 22101398_2 577120449_1 577120449_2"/>
    </vehicle>
    <vehicle id="121" depart="36.30">
        <route edges="577120460_4 723528870_4 723528870_3 243244293 243244310 1009205823_2 1009205823_3 72459949_1 72459949_35 72459949_25 72459949_3 72459949_21 72459949_26 72459949_34 72459949_4 72459949_22 72459949_23 72459949_5 72459949_19 739870761_1 739870761_2 739870761_3 739870761_4"/>
    </vehicle>
    <vehicle id="123" depart="36.90">
        <route edges="795480101_1 795480102 739870761_4 739870761_5 739870762_1 739870763 -72459949_5 -72459949_23 -72459949_22 -72459949_4 -72459949_34 -72459949_26 -72459949_21 -72459949_3 -72459949_25 -72459949_35 -72459949_1 -854991077_24 -854991077_11 -854991077_10 854991077_10"/>
    </vehicle>
    <vehicle id="125" depart="37.50">
        <route edges="854991077_19 -854991077_19 -854991077_15 -854991077_23 -1009205823_3 577120423 577120425 -1009205823_1 -723528870_2 -723528870_3 -723528870_4 -723528870_1 243244292 243244312"/>
    </vehicle>
    <vehicle id="134" depart="40.20">
        <route edges="577120464 1009205826 849652075_1 849652075_2 849652075_4 849652075_3 723528876 723528874 723528871 723528869 1009205825 1009205824_1 1009205824_2 1009205824_3 1009205824_4 723528870_1 723528870_4 723528870_3 243244293 243244310 1009205823_2 1009205823_3 72459949_1 72459949_35 72459949_25 72459949_3 72459949_21 72459949_26 72459949_34 72459949_4 72459949_22 72459949_23 72459949_5 72459949_19 -72459949_19"/>
    </vehicle>
    <vehicle id="136" depart="40.80">
        <route edges="22101400_1 22092326_5 22092326_2 22092326_3 22092326_4 22092326_7 22092326_8 22118428_4 22118428_2 22118428_3 22118428_5 -72459949_38 585657199_1 585657199_6 585657199_3 585657199_4 585657199_5 585657199_2 22100679_8 22100679_3 660258992_1 660258992_2"/>
    </vehicle>
    <vehicle id="138" depart="41.40">
        <route edges="22101398_4 -72459949_19 -72459949_5 -72459949_23 577120445_1"/>
    </vehicle>
    <vehicle id="139" depart="41.70">
        <route edges="243244316_1 243244303_2 243244309_2 243244305_1 243244305_4 243244305_5 243244305_3 243244305_2 243244317"/>
    </vehicle>
    <vehicle id="144" depart="43.20">
        <route edges="577120425 -1009205823_1 -723528870_2 243244293 243244310 1009205823_2 1009205823_3 72459949_1 72459949_35 72459949_25 72459949_3 72459949_21 72459949_26 72459949_34 72459949_4 72459949_22 72459949_23 72459949_5 72459949_19 72459949_18 585657204_1 585657203_1 585657203_4 585657203_2 585657202_1"/>
    </vehicle>
    <vehicle id="145" depart="43.50">
        <route edges="243244306 243244305_5 243244305_3 243244305_2 243244300 1009205825 1009205824_1 1009205824_2 1009205824_3 1009205824_4 723528870_1 723528870_4 723528870_3 243244293 243244310 1009205823_2 1009205823_3 854991077_23 -854991077_23"/>
    </vehicle>
    <vehicle id="147" depart="44.10">
        <route edges="577120441_3 577120441_2 -72459949_3 -72459949_25 -72459949_35 -72459949_1 -854991077_24 -854991077_11 -854991077_10 -854991077_9 -854991077_22 577120419_1 577120419_2 577120417 577120419_4 930246687 22101398_2 22101398_3"/>
    </vehicle>
    <vehicle id="150" depart="45.00">
        <route edges="243244319 243244297_7 243244298 243242210_6 243242210_15 243242210_14 243242210_9 243242210_8"/>
    </vehicle>
    <vehicle id="152" depart="45.60">
        <route edges="586164505_2 586164496 586164503 -72459949_18 -72459949_19 -72459949_5 -72459949_23 -72459949_22 -72459949_4 -72459949_34 -72459949_26 -72459949_21 -72459949_3 -72459949_25 -72459949_35 -72459949_1 -854991077_24 -854991077_11 -854991077_10 -854991077_9 -854991077_22 577120419_1 577120419_2 577120415 577120412"/>
    </vehicle>
    <vehicle id="155" depart="46.50">
        <route edges="577120441_1 577120441_3 577120441_2 -72459949_3 -72459949_25 -72459949_35 -72459949_1 -1009205823_3 577120423 577120425 -1009205823_1 -723528870_2 -723528870_3"/>
    </vehicle>
    <vehicle id="156" depart="46.80">
        <route edges="22092326_6 22092326_5 22092326_2 22100676_1 22100676_2 22100676_3 22100676_4 -72459949_36 -72459949_29 -72459949_28 585657174_1 585657173"/>
    </vehicle>
    <vehicle id="160" depart="48.00">
        <route edges="889459732_1 889459733 -72459949_22 -72459949_4 -72459949_34 -72459949_26 -72459949_21 -72459949_3 -72459949_25 -72459949_35 -72459949_1 -854991077_24 -854991077_11 854991077_11"/>
    </vehicle>
    <vehicle id="161" depart="48.30">
        <route edges="889459733 72459949_23 72459949_5 72459949_19 72459949_18 72459949_11 72459949_39 586164506_1 586164506_2"/>
    </vehicle>
    <vehicle id="163" depart="48.90">
        <route edges="-72459949_14 -72459949_15 -72459949_10 585657193_1 585657193_2 585657193_5 585657193_4 585657193_3 585657193_7 585657193_6 22084209_7 22084209_4"/>
    </vehicle>
    <vehicle id="168" depart="50.40">
        <route edges="22084209_7 -72459949_9 585657191"/>
    </vehicle>
    <vehicle id="182" depart="54.60">
        <route edges="243244295 243244305_2 243244300 1009205825 1009205824_1 1009205824_2 1009205824_3 1009205824_4 723528870_1 723528870_4 723528870_3 243244293 243244310 1009205823_2 1009205823_3 -854991077_24 -854991077_11 -854991077_10 -854991077_9 -854991077_22"/>
    </vehicle>
    <vehicle id="189" depart="56.70">
        <route edges="1009205826 849652075_1 849652075_2 849652075_4 849652075_3 723528876 723528874 723528871 723528869 1009205825 1009205824_1 1009205824_2 1009205824_3 1009205824_4 723528870_1 723528870_4 723528870_3 243244293 243244310 1009205823_2 1009205823_3 72459949_1 72459949_35 72459949_25 72459949_3 72459949_21 72459949_26 72459949_34 72459949_4 72459949_22 72459949_23 72459949_5 72459949_19 739870761_1 739870761_2 795480101_1 795480102"/>
    </vehicle>
    <vehicle id="199" depart="59.70">
        <route edges="-1009205823_1 -723528870_2 243244293 243244310"/>
    </vehicle>
    <vehicle id="201" depart="60.30">
        <route edges="-854991077_13 -854991077_14 -854991077_3 22112647_1 22112647_2 863192277_1 863192277_2 863192277_5 863192277_3 863192277_4 723528870_1 723528870_4 723528870_3 243244293 243244310 1009205823_2 1009205823_3 72459949_1 72459949_35 72459949_25 72459949_3 72459949_21 72459949_26 72459949_34 72459949_4 72459949_22 72459949_23 72459949_5 72459949_19 72459949_18 72459949_11 72459949_39 -72459949_39"/>
    </vehicle>
    <vehicle id="204" depart="61.20">
        <route edges="1009205823_2 1009205823_3 72459949_1 72459949_35 72459949_25 72459949_3 72459949_21 72459949_26 72459949_34 72459949_4 72459949_22 72459949_23 -72459949_23"/>
    </vehicle>
    <vehicle id="205" depart="61.50">
        <route edges="72459949_26 72459949_34 72459949_4 72459949_22 72459949_23 72459949_5 72459949_19 72459949_18 72459949_11 72459949_39 72459949_32 72459949_24 72459949_12 585657172_1 585657172_2 22083807_2"/>
    </vehicle>
    <vehicle id="206" depart="61.80">
        <route edges="-72459949_3 72459949_3 72459949_21 72459949_26 72459949_34 72459949_4 72459949_22 72459949_23 72459949_5 72459949_19 72459949_18 585657204_1 585657203_1 585657203_4 585657203_2 585657202_1"/>
    </vehicle>
    <vehicle id="211" depart="63.30">
        <route edges="-72459949_23 -72459949_22 -72459949_4 -72459949_34 -72459949_26 -72459949_21 -72459949_3 -72459949_25 -72459949_35 -72459949_1 854991077_23 854991077_15 854991077_19 854991077_4 889576722"/>
    </vehicle>
    <vehicle id="214" depart="64.20">
        <route edges="723528875 723528874 723528871 723528869 1009205825 1009205824_1 1009205824_2 1009205824_3 1009205824_4 723528870_1 723528870_4 723528870_3 243244293 243244310 1009205823_2 1009205823_3 72459949_1 72459949_35 72459949_25 72459949_3 72459949_21 72459949_26 72459949_34 72459949_4 72459949_22 72459949_23 72459949_5 72459949_19 739870761_1 739870761_2 739870761_3 739870761_4 739870761_5 739870762_1 739870763"/>
    </vehicle>
    <vehicle id="222" depart="66.60">
        <route edges="-849652075_4 849652075_4 849652075_3 723528876 723528874 723528871 723528869 1009205825 1009205824_1 1009205824_2 1009205824_3 1009205824_4 723528870_1 723528870_4 723528870_3 243244293 243244310 1009205823_2 1009205823_3 72459949_1 72459949_35 72459949_25 72459949_3 72459949_21 72459949_26 72459949_34 72459949_4 889459732_1 889459732_2 889459734 22113123_4 795480097_1"/>
    </vehicle>
    <vehicle id="226" depart="67.80">
        <route edges="72459949_24 -72459949_24 -72459949_32 -72459949_39 -72459949_11 -72459949_18 -72459949_19 -72459949_5 -72459949_23 -72459949_22 -72459949_4 -72459949_34 72459949_34"/>
    </vehicle>
    <vehicle id="227" depart="68.10">
        <route edges="863192277_2 863192277_5 863192277_3 863192277_4 723528870_1 723528870_4 723528870_3 243244293 243244310 1009205823_2 1009205823_3 72459949_1 72459949_35 72459949_25 72459949_3 72459949_21 72459949_26 72459949_34 72459949_4 72459949_22 72459949_23 72459949_5 72459949_19 72459949_18 -72459949_18"/>
    </vehicle>
    <vehicle id="230" depart="69.00">
        <route edges="872830095_3 872830095_2 1009205829 1009205830 577120464 1009205826 849652075_1 849652075_2 849652075_4 849652075_3 723528876 723528874 723528871 723528869 1009205825 1009205824_1 1009205824_2 1009205824_3 1009205824_4 723528870_1 723528870_4 723528870_3 243244293 243244310 1009205823_2 1009205823_3 72459949_1 72459949_35 577120435_1"/>
    </vehicle>
    <vehicle id="234" depart="70.20">
        <route edges="1009205824_3 1009205824_4 723528870_1 723528870_4 723528870_3 243244293 243244310 1009205823_2 1009205823_3 72459949_1 72459949_35 72459949_25 72459949_3 72459949_21 72459949_26 72459949_34 72459949_4 72459949_22 72459949_23 72459949_5 72459949_19 72459949_18 585657204_1 585657203_1 585657203_4 585657203_2 585657202_1 585657201"/>
    </vehicle>
    <vehicle id="235" depart="70.50">
        <route edges="-854991077_18 -854991077_4 -854991077_19 -854991077_15 -854991077_23 -1009205823_3 577120423 577120425 -1009205823_1 -723528870_2 -723528870_3 -723528870_4 -723528870_1 -1009205824_4 -1009205824_3 -1009205824_2"/>
    </vehicle>
    <vehicle id="242" depart="72.60">
        <route edges="243244297_5 243244318 243242210_14 243242210_9 243242210_8 243244297_1 243244303_1 243244316_2 243244312 723528870_1 723528870_4 723528870_3 243244293 243244310 1009205823_2 1009205823_3 -854991077_24 -854991077_11 -854991077_10 -854991077_9 577120408_1 577120408_2"/>
    </vehicle>
    <vehicle id="245" depart="73.50">
        <route edges="-723528869 -723528871 -723528874 -723528876 -849652075_3 -849652075_4 -849652075_2 -849652075_1 849652075_1"/>
    </vehicle>
    <vehicle id="248" depart="74.40">
        <route edges="-72459949_39 -72459949_11 -72459949_18 -72459949_19 -72459949_5 -72459949_23 -72459949_22 -72459949_4 -72459949_34 -72459949_26 -72459949_21 -72459949_3 -72459949_25 -72459949_35 -72459949_1 -854991077_24 -854991077_11 -854991077_10 -854991077_9 -854991077_22 577120419_1 577120419_2 577120417 577120419_4 930246687 22101398_2 577120449_1 577120449_2"/>
    </vehicle>
    <vehicle id="250" depart="75.00">
        <route edges="-72459949_26 -72459949_21 -72459949_3 -72459949_25 -72459949_35 -72459949_1 854991077_23 854991077_15 854991077_19 854991077_4 854991077_18 854991077_17 854991077_20 243245597 243244313_4 243244307"/>
    </vehicle>
    <vehicle id="251" depart="75.30">
        <route edges="586164523_2 -72459949_8 585657190 585657192_2 586164518 -72459949_15 -72459949_10"/>
    </vehicle>
    <vehicle id="259" depart="77.70">
        <route edges="22112647_1 22112647_2 863192277_1 863192277_2 863192277_5 863192277_3 863192277_4 723528870_1"/>
    </vehicle>
    <vehicle id="260" depart="78.00">
        <route edges="243244297_7 243244298 243242210_6 243242210_15 243242210_14 243242210_9 243242210_8 243244297_1 243244303_1 243244303_2 243244309_2 243244305_1 243244305_4 243244305_5 243244305_3 243244305_2 243244300 -723528869 -723528871 -723528874 -723528876 723528876"/>
    </vehicle>
    <vehicle id="271" depart="81.30">
        <route edges="586164504 586164494 586164505_2 586164496 586164503 -72459949_18 -72459949_19 -72459949_5 -72459949_23 -72459949_22 -72459949_4 -72459949_34 -72459949_26 -72459949_21 -72459949_3 -72459949_25 -72459949_35 -72459949_1 -854991077_24 -854991077_11 -854991077_10 -854991077_9 -854991077_22 577120419_1 577120419_2 577120417 577120419_4 930246687 22101398_2 22101398_3"/>
    </vehicle>
    <vehicle id="273" depart="81.90">
        <route edges="723528867 723528868 723528875 723528874 723528871 723528869 1009205825 1009205824_1 606549776_1 606549777"/>
    </vehicle>
    <vehicle id="282" depart="84.60">
        <route edges="72459949_22 -72459949_22 -72459949_4 -72459949_34 -72459949_26 -72459949_21 -72459949_3 -72459949_25 -72459949_35 -72459949_1 -854991077_24 -854991077_11 -854991077_10 -854991077_9 -854991077_22 577120419_1 577120419_2 577120415 577120412"/>
    </vehicle>
    <vehicle id="283" depart="84.90">
        <route edges="739870761_3 739870761_4 739870761_5 739870762_1 739870763 -72459949_5 -72459949_23 -72459949_22 -72459949_4 -72459949_34 -72459949_26 -72459949_21 -72459949_3 -72459949_25 -72459949_35 -72459949_1 854991077_23 854991077_15 854991077_19 854991077_4 854991077_18 854991077_17 854991077_20 243245597 243244313_4 243244313_3 243244313_2"/>
    </vehicle>
    <vehicle id="285" depart="85.50">
        <route edges="586164506_1 586164494 586164505_2 586164496 586164503 -72459949_18 -72459949_19 -72459949_5 -72459949_23 -72459949_22 -72459949_4 -72459949_34 -72459949_26 -72459949_21 -72459949_3 -72459949_25 -72459949_35 -72459949_1 854991077_23 854991077_15 854991077_19 854991077_4 854991077_18 854991077_17 -854991077_17"/>
    </vehicle>
    <vehicle id="291" depart="87.30">
        <route edges="72459949_24 -72459949_24 -72459949_32 -72459949_39 -72459949_11 -72459949_18 -72459949_19 -72459949_5 -72459949_23 -72459949_22 889459732_1"/>
    </vehicle>
    <vehicle id="295" depart="88.50">
        <route edges="-854991077_14 -854991077_3 22112647_1 22112647_2 863192277_1 863192277_2 863192277_5 863192277_3 863192277_4 -1009205824_4 -1009205824_3 -1009205824_2 -1009205824_1 -1009205825 -723528869 -723528871"/>
    </vehicle>
    <vehicle id="301" depart="90.30">
        <route edges="889459733 -72459949_22 -72459949_4 -72459949_34 -72459949_26 -72459949_21 -72459949_3 72459949_3"/>
    </vehicle>
    <vehicle id="303" depart="90.90">
        <route edges="577120419_3 577120419_4 930246687 22101398_2 22101398_3 22101398_4 -72459949_19 -72459949_5 -72459949_23 -72459949_22 -72459949_4 -72459949_34 -72459949_26 -72459949_21 -72459949_3 577120437"/>
    </vehicle>
    <vehicle id="307" depart="92.10">
        <route edges="22101400_1 22092326_5 22083807_1 22083807_2 72459949_24 -72459949_24"/>
    </vehicle>
    <vehicle id="314" depart="94.20">
        <route edges="-723528870_3 723528870_3 243244293 243244310 1009205823_2 1009205823_3 854991077_23 854991077_15 854991077_19 854991077_4 854991077_18 854991077_17 854991077_20 243245597 243244313_4"/>
    </vehicle>
    <vehicle id="317" depart="95.10">
        <route edges="854991077_21 22112647_1 22112647_2 863192277_1 863192277_2 863192277_5 863192277_3 863192277_4 723528870_1 723528870_4 723528870_3 243244293 243244310 1009205823_2 1009205823_3 72459949_1 72459949_35 72459949_25 72459949_3 72459949_21 72459949_26 72459949_34 72459949_4 72459949_22 72459949_23 72459949_5 72459949_19 72459949_18 72459949_11 72459949_39 72459949_32 72459949_24"/>
    </vehicle>
    <vehicle id="323" depart="96.90">
        <route edges="586164503 -72459949_18 -72459949_19 -72459949_5 -72459949_23 -72459949_22 -72459949_4 -72459949_34 -72459949_26 -72459949_21 -72459949_3 -72459949_25 -72459949_35 72459949_35"/>
    </vehicle>
    <vehicle id="328" depart="98.40">
        <route edges="-854991077_9 854991077_9 854991077_10 854991077_11 854991077_24 72459949_1 72459949_35 72459949_25 72459949_3 72459949_21 72459949_26 72459949_34 72459949_4 72459949_22 72459949_23 72459949_5 72459949_19 72459949_18 72459949_11 72459949_39 586164506_1 586164494 586164505_2 586164496 586164504"/>
    </vehicle>
    <vehicle id="329" depart="98.70">
        <route edges="22092326_6 22092326_5 22092326_2 22092326_3 22092326_4 586164519"/>
    </vehicle>
    <vehicle id="333" depart="99.90">
        <route edges="-72459949_3 -72459949_25 -72459949_35 -72459949_1 -1009205823_3 577120423 577120425 -1009205823_1 -723528870_2 -723528870_3 -723528870_4 -723528870_1 -1009205824_4 -1009205824_3 -1009205824_2 -1009205824_1 -1009205825 -723528869 -723528871 -723528874 -723528876 -849652075_3 -849652075_4"/>
    </vehicle>
    <vehicle id="336" depart="100.80">
        <route edges="585657201 585657203_2 585657203_3 585657204_3 -72459949_11 -72459949_18 -72459949_19 -72459949_5 -72459949_23 -72459949_22 -72459949_4 -72459949_34 -72459949_26 -72459949_21 -72459949_3 -72459949_25 -72459949_35 -72459949_1 -854991077_24 -854991077_11 -854991077_10 -854991077_9 -854991077_22 577120419_1 577120419_2 577120417 577120419_4"/>
    </vehicle>
    <vehicle id="341" depart="102.30">
        <route edges="577120438 577120441_3 577120441_2 -72459949_3 -72459949_25 -72459949_35 -72459949_1 -1009205823_3 577120423 577120425 -1009205823_1 -723528870_2 -723528870_3 -723528870_4 -723528870_1 -1009205824_4 -1009205824_3 -1009205824_2 -1009205824_1 -1009205825 -723528869 -723528871 -723528874 -723528876 -849652075_3 -849652075_4 -849652075_2 -849652075_1"/>
    </vehicle>
    <vehicle id="343" depart="102.90">
        <route edges="723528870_1 723528870_4 723528870_3 243244293 243244310 1009205823_2 1009205823_3 -854991077_24 -854991077_11 -854991077_10 -854991077_9 -854991077_22 577120419_1 577120419_2 577120417 577120419_4 930246687 22101398_2 577120449_1 577120447"/>
    </vehicle>
    <vehicle id="344" depart="103.20">
        <route edges="854991077_6 854991077_12"/>
    </vehicle>
    <vehicle id="347" depart="104.10">
        <route edges="739870761_3 739870761_4 739870761_5 739870762_1 739870763 -72459949_5 -72459949_23 -72459949_22 889459732_1 889459732_2 889459734"/>
    </vehicle>
    <vehicle id="351" depart="105.30">
        <route edges="243244319 243244297_7 243244298 243242210_6 243242210_15 243242210_14 243242210_9 243242210_8 243242210_5 243242210_17 243242210_12 243242210_7 243242210_10"/>
    </vehicle>
    <vehicle id="352" depart="105.60">
        <route edges="586164523_1 586164524_6 586164524_5"/>
    </vehicle>
    <vehicle id="359" depart="107.70">
        <route edges="243245600 243244313_6 243244313_7 243244313_4 243244313_3 243244313_2 -854991077_17 -854991077_18 -854991077_4 -854991077_19 -854991077_15 795480099_1 795480099_2 72459949_35 72459949_25 72459949_3 72459949_21 72459949_26 72459949_34 72459949_4 72459949_22"/>
    </vehicle>
    <vehicle id="361" depart="108.30">
        <route edges="889459732_1 889459733 -72459949_22 -72459949_4 -72459949_34 -72459949_26 -72459949_21 -72459949_3 -72459949_25 -72459949_35 -72459949_1 -1009205823_3 577120423 577120425 -1009205823_1 -723528870_2 -723528870_3 606549775"/>
    </vehicle>
    <vehicle id="362" depart="108.60">