<?xml version="1.0" encoding="UTF-8"?>
<!-- generated on 2022-01-23 18:54:33.450065 by randomTrips.py UNKNOWN
  options: -n sumo.net.xml -r sumo.rou.xml -b 0 -e 1000 -p 0.05 <doubleminus>binomial 15 <doubleminus>min-distance 500 <doubleminus>fringe-factor 1 <doubleminus>intermediate 5 <doubleminus>trip-attributes departSpeed="max" departPos="random"
-->
<routes xmlns:xsi="http://www.w3.org/2001/XMLSchema-instance" xsi:noNamespaceSchemaLocation="http://sumo.dlr.de/xsd/routes_file.xsd">
    <trip id="0" depart="0.00" from="-1012168282#3" to="-22084794#0" via="-22118428#5 -22108021#17 22109681#3 22100679#7 849652076#6"  departSpeed="max" departPos="random"/>
    <trip id="1" depart="0.00" from="-109475192#3" to="22082435#2" via="-22108021#13 1009205832 -1012168282#3 -22101803#5 22096079"  departSpeed="max" departPos="random"/>
    <trip id="2" depart="0.00" from="22086477#0" to="-22092326#8" via="660258993#2 -1004349093#5 660258992#1 22102488 -72459949#21"  departSpeed="max" departPos="random"/>
    <trip id="3" depart="0.00" from="-72459949#11" to="22108021#3" via="-22086477#1 -22086477#5 72459949#13 22088077#5 660258993#0"  departSpeed="max" departPos="random"/>
    <trip id="4" depart="0.00" from="863192275#7" to="22084209#9" via="-849652076#7 22082435#5 723313926#2 22090081#0 72459949#28"  departSpeed="max" departPos="random"/>
    <trip id="5" depart="0.00" from="-22082254#4" to="-22117032#2" via="-22108021#3 -243246050 -22084209#4 -22108021#9 -22087405#1"  departSpeed="max" departPos="random"/>
    <trip id="6" depart="0.00" from="-72459949#45" to="22088393#4" via="-849652076#1 -22102956#5 -22117032#1 854991077#4 22092326#8"  departSpeed="max" departPos="random"/>
    <trip id="7" depart="0.00" from="22108021#16" to="22101398#0" via="-22099335#5 -849652076#9 863192281#3 22092326#12 22083732#1"  departSpeed="max" departPos="random"/>
    <trip id="8" depart="0.00" from="22116242" to="863192271#0" via="-22108021#4 -109475192#5 -723313926#3 -22117032#1 -22103396"  departSpeed="max" departPos="random"/>
    <trip id="9" depart="0.00" from="-660564960#1" to="-22109681#4" via="22099335#2 -854991077#10 854991077#15 -863192276#0 -22113370#0"  departSpeed="max" departPos="random"/>
    <trip id="10" depart="0.00" from="-22112400#6" to="1009205843" via="22086388#1 849652077#10 -854991077#13 -22108021#14 872831465"  departSpeed="max" departPos="random"/>
    <trip id="11" depart="0.00" from="-22082254#5" to="-849652076#5" via="-22088077#5 22091436 243245951 -854991077#4 -22083732#2"  departSpeed="max" departPos="random"/>
    <trip id="12" depart="0.00" from="109475192#5" to="22082254#1" via="863192275#6 72459949#27 -1009205823#3 22108021#17 22101398#1"  departSpeed="max" departPos="random"/>
    <trip id="13" depart="0.00" from="22092326#0" to="-22112400#4" via="-22088393#0 -863192272#3 -863192275#4 863192272#8 72459949#46"  departSpeed="max" departPos="random"/>
    <trip id="14" depart="0.00" from="-22100679#10" to="-22092326#6" via="854991077#12 72459949#41 -660258993#1 22092326#11 22088393#2"  departSpeed="max" departPos="random"/>
    <trip id="15" depart="1.00" from="22082254#0" to="854991077#27" via="22118686#2 109475192#7 -1004349093#0 -723528874 -1009205834"  departSpeed="max" departPos="random"/>
    <trip id="16" depart="1.00" from="691285632" to="1004349093#3" via="-660564959#6 -22082435#6 72459949#7 863192272#10 -22084209#9"  departSpeed="max" departPos="random"/>
    <trip id="17" depart="1.00" from="22112400#2" to="72459949#40" via="22116242 -22091435#0 -863192281#3 22082435#3 -22113370#0"  departSpeed="max" departPos="random"/>
    <trip id="18" depart="1.00" from="-22102956#2" to="22092326#7" via="22082254#1 22108021#8 -22101803#7 -723313926#0 872831463#1"  departSpeed="max" departPos="random"/>
    <trip id="19" depart="1.00" from="1009205849" to="-22107823" via="-22090004#1 -22108021#2 -72459949#2 22086477#2 -22108021#6"  departSpeed="max" departPos="random"/>
    <trip id="20" depart="1.00" from="22091435#1" to="22100408#1" via="-22108021#4 849652077#6 72459949#26 -22083807#1 -22109681#3"  departSpeed="max" departPos="random"/>
    <trip id="21" depart="1.00" from="-22091435#1" to="-22101398#1" via="854991077#33 22084209#11 -863192281#1 226850634#4 660258993#0"  departSpeed="max" departPos="random"/>
    <trip id="22" depart="1.00" from="-863192271#0" to="-22086477#5" via="-854991077#6 -863192278 22108021#7 22100679#4 863192280#1"  departSpeed="max" departPos="random"/>
    <trip id="23" depart="1.00" from="-72459949#13" to="-22117032#2" via="72459949#28 -22112398#2 -22101535#0 -863192274#1 -854991077#4"  departSpeed="max" departPos="random"/>
    <trip id="24" depart="1.00" from="854991077#19" to="723313926#2" via="-863192273#1 72459949#27 22082435#4 -22082435#0 975028604"  departSpeed="max" departPos="random"/>
    <trip id="25" depart="1.00" from="854991077#22" to="-22082621" via="72459949#14 -22099335#9 1004349093#2 -22108021#1 -854991077#16"  departSpeed="max" departPos="random"/>
    <trip id="26" depart="1.00" from="863192280#1" to="872831463#1" via="-22113370#0 226850634#4 -863192275#5 -854991077#6 863192273#1"  departSpeed="max" departPos="random"/>
    <trip id="27" depart="1.00" from="22106131#0" to="22111943#2" via="-22098202#0 -660258993#0 863192275#4 22084209#8 22082254#4"  departSpeed="max" departPos="random"/>
    <trip id="28" depart="1.00" from="22084794#1" to="-22100679#8" via="1009205828#1 72459949#19 -22099335#0 863192273#4 -22084209#4"  departSpeed="max" departPos="random"/>
    <trip id="29" depart="1.00" from="22100676#3" to="22090730#0" via="-22109681#0 -22088393#7 849652076#5 -22111943#3 22087405#0"  departSpeed="max" departPos="random"/>
    <trip id="30" depart="2.00" from="22084794#0" to="-849652077#7" via="1012168282#4 854991077#32 -22102956#1 22108021#13 -22109681#4"  departSpeed="max" departPos="random"/>
    <trip id="31" depart="2.00" from="-643870040" to="872831464" via="-723528869 22112400#3 -22083889#1 -863192276#0 889461343"  departSpeed="max" departPos="random"/>
    <trip id="32" depart="2.00" from="-22102956#4" to="-22096079" via="-22113370#0 854991077#31 72459949#9 72459949#8 -849652075#3"  departSpeed="max" departPos="random"/>
    <trip id="33" depart="2.00" from="22101803#7" to="-243246050" via="22088393#4 863192281#1 22099335#0 -1004349093#6 660564959#6"  departSpeed="max" departPos="random"/>
    <trip id="34" depart="2.00" from="854991077#33" to="22088393#0" via="-22091670#3 -22088393#3 -22088077#2 22082435#6 -22118428#2"  departSpeed="max" departPos="random"/>
    <trip id="35" depart="2.00" from="-22101803#5" to="-22086388#1" via="22091670#6 -22113123#4 1004349093#5 849652077#6 72459949#12"  departSpeed="max" departPos="random"/>
    <trip id="36" depart="2.00" from="-22117032#3" to="22082621" via="-1004349093#3 22118428#2 22092326#10 -22113123#2 22111943#1"  departSpeed="max" departPos="random"/>
    <trip id="37" depart="2.00" from="-1009205823#0" to="22084794#1" via="-22084209#10 849652075#2 849652077#5 22082435#0 723528870#1"  departSpeed="max" departPos="random"/>
    <trip id="38" depart="2.00" from="-22090808#1" to="-22102956#1" via="-660564960#0 849652077#11 244138178 72459949#27 849652077#11"  departSpeed="max" departPos="random"/>
    <trip id="39" depart="2.00" from="-22087405#3" to="854991077#28" via="226850634#0 849652075#3 -854991077#20 22090730#1 -22096079"  departSpeed="max" departPos="random"/>
    <trip id="40" depart="2.00" from="863192276#1" to="854991077#29" via="660564959#0 849652075#1 -1012168282#1 22109681#4 -72459949#13"  departSpeed="max" departPos="random"/>
    <trip id="41" depart="2.00" from="72459949#23" to="72459949#2" via="660564959#0 -22113370#1 243245949#0 -22088077#3 72459949#43"  departSpeed="max" departPos="random"/>
    <trip id="42" depart="2.00" from="660258993#0" to="-22101398#3" via="-863192276#1 -660564959#4 243246050 -22108021#3 -1012168282#0"  departSpeed="max" departPos="random"/>
    <trip id="43" depart="2.00" from="72459949#23" to="22082254#0" via="863192275#3 -22118686#2 22092326#3 -854991077#13 863192278"  departSpeed="max" departPos="random"/>
    <trip id="44" depart="2.00" from="-22088393#4" to="-863192272#1" via="863192275#6 -22100679#5 863192274#1 -22113370#0 -22088077#3"  departSpeed="max" departPos="random"/>
    <trip id="45" depart="3.00" from="-660564960#0" to="22102956#2" via="22088393#0 1009205843 -849652077#12 22084209#6 -22112400#4"  departSpeed="max" departPos="random"/>
    <trip id="46" depart="3.00" from="854991077#22" to="-22083807#1" via="22082254#1 22108021#16 22111943#1 22100679#2 -72459949#8"  departSpeed="max" departPos="random"/>
    <trip id="47" depart="3.00" from="-723528871" to="-854991077#18" via="-723313926#2 72459949#14 22108021#16 -660564959#0 -691285626#0"  departSpeed="max" departPos="random"/>
    <trip id="48" depart="3.00" from="-244138178" to="22090004#1" via="-22091136#1 -854991077#33 854991077#8 22100679#8 849652077#4"  departSpeed="max" departPos="random"/>
    <trip id="49" depart="3.00" from="22082435#1" to="-863192277#3" via="-1004349093#0 -243245949#1 -863192272#0 22084209#9 22099335#1"  departSpeed="max" departPos="random"/>
    <trip id="50" depart="3.00" from="-22102956#4" to="1009205849" via="-863192281#2 849652077#2 243246050 -22100676#0 -22084209#9"  departSpeed="max" departPos="random"/>
    <trip id="51" depart="3.00" from="-72459949#10" to="-1012168282#1" via="660564960#0 22112400#2 22100679#4 -22108021#2 -22101803#5"  departSpeed="max" departPos="random"/>
    <trip id="52" depart="3.00" from="-863192281#2" to="22101803#3" via="72459949#15 -22083889#1 -854991077#28 22091670#2 -22101803#1"  departSpeed="max" departPos="random"/>
    <trip id="53" depart="3.00" from="-22109681#3" to="-854991077#4" via="22099335#2 -1004349093#4 22112400#2 22118428#1 -22088077#2"  departSpeed="max" departPos="random"/>
    <trip id="54" depart="3.00" from="863192273#0" to="384921537" via="1012168282#0 -22082254#6 -22112398#2 72459949#14 -863192275#6"  departSpeed="max" departPos="random"/>
    <trip id="55" depart="3.00" from="863192281#1" to="1009205832" via="22087405#0 863192272#4 849652076#6 22088393#5 22108021#15"  departSpeed="max" departPos="random"/>
    <trip id="56" depart="3.00" from="22082435#1" to="22091670#6" via="849652077#10 22111943#3 -863192281#3 -22112647#1 -22111943#4"  departSpeed="max" departPos="random"/>
    <trip id="57" depart="3.00" from="1012168282#2" to="-696796536" via="22091436 -22118428#4 -22084209#2 -243245949#0 -22118428#2"  departSpeed="max" departPos="random"/>
    <trip id="58" depart="3.00" from="-22091670#2" to="22082254#6" via="-22108021#7 22101803#4 22102956#4 -22083732#3 -854991077#22"  departSpeed="max" departPos="random"/>
    <trip id="59" depart="3.00" from="-22101964" to="22113123#3" via="-854991077#32 849652077#5 22084794#1 22101803#6 72459949#21"  departSpeed="max" departPos="random"/>
    <trip id="60" depart="4.00" from="-1004349093#5" to="22111943#2" via="-72459949#4 22112400#4 72459949#2 863192272#8 -854991077#31"  departSpeed="max" departPos="random"/>
    <trip id="61" depart="4.00" from="22088077#1" to="22100679#6" via="-22108021#15 -22108021#14 -863192272#4 -109475192#2 -72459949#17"  departSpeed="max" departPos="random"/>
    <trip id="62" depart="4.00" from="-22099335#2" to="22083889#1" via="-863192279 -22091136#1 22091136#0 -1012168282#3 -849652077#8"  departSpeed="max" departPos="random"/>
    <trip id="63" depart="4.00" from="22092326#10" to="-723528870#1" via="-22091670#4 -863192277#1 -22082254#6 -849652076#7 -22103396"  departSpeed="max" departPos="random"/>
    <trip id="64" depart="4.00" from="-849652076#2" to="22082254#3" via="22112400#3 723528869 -22112400#2 -22084209#6 -1009205832"  departSpeed="max" departPos="random"/>
    <trip id="65" depart="4.00" from="-72459949#25" to="-22101803#1" via="22096079 226850634#1 22098202#0 22112400#5 863192272#4"  departSpeed="max" departPos="random"/>
    <trip id="66" depart="4.00" from="-22092326#4" to="22113123#4" via="-22091136#0 22100676#3 22083807#0 -22108021#13 22102852#0"  departSpeed="max" departPos="random"/>
    <trip id="67" depart="4.00" from="22088077#5" to="-1012168282#2" via="22112398#2 -22088393#2 685704350 863192275#1 -22088077#3"  departSpeed="max" departPos="random"/>
    <trip id="68" depart="4.00" from="22100679#3" to="22091435#1" via="863192273#2 -854991077#11 22108021#12 -22084209#11 22101803#1"  departSpeed="max" departPos="random"/>
    <trip id="69" depart="4.00" from="22113123#4" to="-72459949#21" via="72459949#16 22088077#1 -22090004#1 863192280#0 226850634#2"  departSpeed="max" departPos="random"/>
    <trip id="70" depart="4.00" from="-72459949#8" to="863192273#4" via="1009205832 -72459949#21 72459949#15 691285626#0 -22088077#1"  departSpeed="max" departPos="random"/>
    <trip id="71" depart="4.00" from="685704350" to="643870040" via="22102956#5 -863192272#4 22109681#0 863192275#1 -22117032#3"  departSpeed="max" departPos="random"/>
    <trip id="72" depart="4.00" from="-889461343" to="-22084794#0" via="-863192272#4 22108021#9 -22117032#2 72459949#17 723313926#3"  departSpeed="max" departPos="random"/>
    <trip id="73" depart="4.00" from="-22109681#3" to="-22100679#5" via="-863192277#3 22088393#3 -849652076#7 -109475192#2 72459949#16"  departSpeed="max" departPos="random"/>
    <trip id="74" depart="4.00" from="243245946#1" to="863192272#10" via="-72459949#21 72459949#9 22102956#0 -22118686#0 -1009205823#0"  departSpeed="max" departPos="random"/>
    <trip id="75" depart="5.00" from="22108021#0" to="243245949#1" via="1004349093#5 22112647#1 22101803#1 22092326#6 1004349093#7"  departSpeed="max" departPos="random"/>
    <trip id="76" depart="5.00" from="-22108021#10" to="-854991077#4" via="22101803#2 -660564959#5 22084609#0 -863192281#2 109475192#8"  departSpeed="max" departPos="random"/>
    <trip id="77" depart="5.00" from="-723528871" to="-22088393#5" via="22102956#1 -22118428#1 -22112400#1 -22090004#1 -22101803#0"  departSpeed="max" departPos="random"/>
    <trip id="78" depart="5.00" from="22112400#4" to="109475192#4" via="-22101398#0 -22108021#11 1004349093#1 22108021#20 863192277#1"  departSpeed="max" departPos="random"/>
    <trip id="79" depart="5.00" from="-22087405#0" to="-22113370#0" via="-22101803#1 -22108021#3 -22100679#6 -1009205824#1 168925359#1"  departSpeed="max" departPos="random"/>
    <trip id="80" depart="5.00" from="22082435#6" to="22084209#6" via="22101803#7 -22091136#0 72459949#40 1004349093#7 72459949#43"  departSpeed="max" departPos="random"/>
    <trip id="81" depart="5.00" from="-863192272#6" to="-854991077#10" via="-22100709#1 -22082435#0 854991077#9 -872830095#3 691285626#0"  departSpeed="max" departPos="random"/>
    <trip id="82" depart="5.00" from="22091435#0" to="-22088393#4" via="-22082435#2 -22092326#6 22083732#7 -660564959#3 872831463#0"  departSpeed="max" departPos="random"/>
    <trip id="83" depart="5.00" from="22088077#3" to="72459949#20" via="243245950#1 -22108021#20 1012168282#4 -863192275#1 -863192273#1"  departSpeed="max" departPos="random"/>
    <trip id="84" depart="5.00" from="-660258993#2" to="-22102956#2" via="22090808#0 22088393#3 22111943#0 863192272#11 -22102956#4"  departSpeed="max" departPos="random"/>
    <trip id="85" depart="5.00" from="-22092326#9" to="-226850634#0" via="-22100676#3 -22084209#10 -1004349093#2 -863192275#1 22086477#7"  departSpeed="max" departPos="random"/>
    <trip id="86" depart="5.00" from="22102852#1" to="22091136#1" via="22102956#1 -863192275#4 22101535#1 854991077#24 243245949#0"  departSpeed="max" departPos="random"/>
    <trip id="87" depart="5.00" from="854991077#29" to="-22083889#1" via="-854991077#8 22082254#6 22092326#8 849652077#9 691285646#1"  departSpeed="max" departPos="random"/>
    <trip id="88" depart="5.00" from="-660564959#1" to="22101803#6" via="22112400#0 22084209#1 -243245951 -22090730#1 22101803#0"  departSpeed="max" departPos="random"/>
    <trip id="89" depart="5.00" from="1009205824#3" to="-22111943#0" via="1009205823#3 -22084209#5 -168925359#1 -863192272#10 -723528871"  departSpeed="max" departPos="random"/>
    <trip id="90" depart="6.00" from="863192273#3" to="-22113123#1" via="723528870#2 22084209#5 863192272#5 975028604 22100679#3"  departSpeed="max" departPos="random"/>
    <trip id="91" depart="6.00" from="22112398#1" to="22091670#4" via="-863192280#1 22098202#0 854991077#16 -22100679#8 22086388#1"  departSpeed="max" departPos="random"/>
    <trip id="92" depart="6.00" from="-22086477#0" to="22101803#0" via="-72459949#3 -72459949#14 22100679#2 72459949#23 -72459949#11"  departSpeed="max" departPos="random"/>
    <trip id="93" depart="6.00" from="863192271#0" to="863192275#5" via="660564959#3 22082435#4 -863192275#5 -723313926#2 -723528874"  departSpeed="max" departPos="random"/>
    <trip id="94" depart="6.00" from="1009205847" to="-72459949#42" via="863192281#2 22099335#4 22082254#4 -854991077#27 -22101398#2"  departSpeed="max" departPos="random"/>
    <trip id="95" depart="6.00" from="22090730#1" to="22101803#4" via="22113123#2 -22102956#0 22082435#3 854991077#27 -863192272#6"  departSpeed="max" departPos="random"/>
    <trip id="96" depart="6.00" from="863192275#7" to="-22086477#0" via="22088393#2 -22109681#4 -22099335#1 22082435#4 22082435#6"  departSpeed="max" departPos="random"/>
    <trip id="97" depart="6.00" from="849652077#9" to="1009205842" via="-863192277#0 -22088393#5 723528869 1009205824#3 22108021#13"  departSpeed="max" departPos="random"/>
    <trip id="98" depart="6.00" from="691285646#1" to="1009205842" via="863192277#4 -22111943#1 22082435#5 -849652077#10 854991077#22"  departSpeed="max" departPos="random"/>
    <trip id="99" depart="6.00" from="72459949#23" to="660564959#6" via="-22118686#0 243245950#0 -854991077#29 854991077#32 1009205835#0"  departSpeed="max" departPos="random"/>
    <trip id="100" depart="6.00" from="-585758269" to="-72459949#2" via="22086477#1 975028604 1004349093#6 -22092326#5 22082254#1"  departSpeed="max" departPos="random"/>
    <trip id="101" depart="6.00" from="22082254#4" to="-22108021#20" via="-863192275#5 -723528870#3 -22101398#3 22101803#7 22084209#2"  departSpeed="max" departPos="random"/>
    <trip id="102" depart="6.00" from="-22082254#2" to="660564959#6" via="22111943#4 22102956#3 660564959#1 -849652077#2 22099336#1"  departSpeed="max" departPos="random"/>
    <trip id="103" depart="6.00" from="1009205823#3" to="-863192272#6" via="-168925354 1009205828#1 22086477#4 72459949#41 72459949#45"  departSpeed="max" departPos="random"/>
    <trip id="104" depart="6.00" from="-863192275#4" to="863192275#4" via="22108021#19 -854991077#24 22099335#1 -22096079 -863192280#0"  departSpeed="max" departPos="random"/>
    <trip id="105" depart="7.00" from="22101400#1" to="-660564959#6" via="22096079 72459949#17 72459949#19 72459949#26 -849652076#9"  departSpeed="max" departPos="random"/>
    <trip id="106" depart="7.00" from="22112400#1" to="872831465" via="72459949#43 -109475192#8 -22083732#7 22091670#4 854991077#20"  departSpeed="max" departPos="random"/>
    <trip id="107" depart="7.00" from="-863192272#1" to="849652077#12" via="-22086477#6 22091670#6 72459949#43 -863192273#2 22101803#4"  departSpeed="max" departPos="random"/>
    <trip id="108" depart="7.00" from="243245946#0" to="243245949#1" via="-585758269 -849652076#4 -22092326#3 109475192#8 22083889#0"  departSpeed="max" departPos="random"/>
    <trip id="109" depart="7.00" from="-22084209#5" to="-863192276#1" via="72459949#42 22090730#1 -22110345 854991077#12 -22092326#11"  departSpeed="max" departPos="random"/>
    <trip id="110" depart="7.00" from="-22112398#2" to="-863192272#8" via="-1009205823#0 660258992#0 849652077#2 22100679#8 -22099335#0"  departSpeed="max" departPos="random"/>
    <trip id="111" depart="7.00" from="22086388#0" to="-849652076#9" via="22092326#11 -854991077#7 -22112400#0 72459949#11 -22101803#5"  departSpeed="max" departPos="random"/>
    <trip id="112" depart="7.00" from="-22108021#8" to="22099335#0" via="22084209#2 22084209#4 872830095#2 -660258992#0 863192277#2"  departSpeed="max" departPos="random"/>
    <trip id="113" depart="7.00" from="22083807#1" to="849652077#2" via="22101400#1 22111943#4 -22082254#5 22088393#0 1009205824#1"  departSpeed="max" departPos="random"/>
    <trip id="114" depart="7.00" from="243245949#0" to="22108021#12" via="22088393#0 -72459949#4 22092326#1 22090808#0 22100679#8"  departSpeed="max" departPos="random"/>
    <trip id="115" depart="7.00" from="723313926#2" to="22084609#1" via="22091670#1 849652077#4 22092326#7 -660564960#0 -863192272#9"  departSpeed="max" departPos="random"/>
    <trip id="116" depart="7.00" from="-22086388#1" to="863192275#6" via="-660258992#0 22112398#2 -22100679#3 -22091670#1 22082254#1"  departSpeed="max" departPos="random"/>
    <trip id="117" depart="7.00" from="849652077#9" to="22111943#1" via="723313926#3 -22112400#6 691285641#3 -889461343 660258993#0"  departSpeed="max" departPos="random"/>
    <trip id="118" depart="7.00" from="-22088393#4" to="863192277#4" via="863192274#1 -22092326#1 863192275#2 72459949#26 22108021#20"  departSpeed="max" departPos="random"/>
    <trip id="119" depart="7.00" from="243245953#1" to="22100676#3" via="-849652075#0 243245950#1 -1009205824#1 22080594 -863192275#5"  departSpeed="max" departPos="random"/>
    <trip id="120" depart="8.00" from="22084794#1" to="72459949#8" via="691285626#0 854991077#8 -22088077#3 -22109194#0 -1012168282#1"  departSpeed="max" departPos="random"/>
    <trip id="121" depart="8.00" from="854991077#10" to="-854991077#18" via="-22108021#16 -22083732#2 691285641#3 849652077#9 -660564959#1"  departSpeed="max" departPos="random"/>
    <trip id="122" depart="8.00" from="863192271#1" to="-863192275#2" via="-660564959#3 1009205823#2 -22086477#5 849652076#2 -22091670#4"  departSpeed="max" departPos="random"/>
    <trip id="123" depart="8.00" from="22109681#0" to="-22086477#5" via="863192272#1 -854991077#31 22111943#2 -22096079 -854991077#29"  departSpeed="max" departPos="random"/>
    <trip id="124" depart="8.00" from="-854991077#18" to="72459949#16" via="863192272#5 -109475192#5 -849652076#1 -863192273#2 863192272#4"  departSpeed="max" departPos="random"/>
    <trip id="125" depart="8.00" from="22100709#1" to="-22088393#7" via="22082254#6 863192277#2 -72459949#45 -854991077#12 -22101400#1"  departSpeed="max" departPos="random"/>
    <trip id="126" depart="8.00" from="-863192275#2" to="-22109681#0" via="22099335#9 22092326#3 22087405#2 -1009205844 243245946#1"  departSpeed="max" departPos="random"/>
    <trip id="127" depart="8.00" from="22083807#0" to="-723528870#2" via="-22083732#7 22113370#1 -22102956#3 -22108021#11 72459949#41"  departSpeed="max" departPos="random"/>
    <trip id="128" depart="8.00" from="849652077#0" to="-22100676#0" via="-1004349093#2 72459949#25 -22092326#2 -22091435#1 -22112400#0"  departSpeed="max" departPos="random"/>
    <trip id="129" depart="8.00" from="-1012168282#3" to="-22082435#2" via="-1009205824#1 243245950#0 -22109681#3 -723528874 -22100679#2"  departSpeed="max" departPos="random"/>
    <trip id="130" depart="8.00" from="109475192#2" to="1009205832" via="22111943#4 -872830095#0 22118686#2 1009205846 -22088077#5"  departSpeed="max" departPos="random"/>
    <trip id="131" depart="8.00" from="-22082254#2" to="-22083732#0" via="226850634#2 72459949#39 1012168282#3 -863192275#7 863192275#0"  departSpeed="max" departPos="random"/>
    <trip id="132" depart="8.00" from="-854991077#11" to="22088393#3" via="22101400#1 1004349093#7 854991077#10 -22084209#1 -22084209#5"  departSpeed="max" departPos="random"/>
    <trip id="133" depart="8.00" from="-22117032#2" to="-863192275#2" via="22091670#5 22082435#2 -723528876 872831463#1 109475192#8"  departSpeed="max" departPos="random"/>
    <trip id="134" depart="8.00" from="-22086477#7" to="-22102956#5" via="22102956#0 72459949#19 22098202#0 22117032#3 22108021#17"  departSpeed="max" departPos="random"/>
    <trip id="135" depart="9.00" from="-22108021#17" to="22099335#7" via="-72459949#2 -863192275#3 -854991077#3 -22086477#4 -854991077#9"  departSpeed="max" departPos="random"/>
    <trip id="136" depart="9.00" from="-22092326#5" to="22109681#0" via="854991077#23 -22083732#6 723528869 -22086477#2 -22086477#5"  departSpeed="max" departPos="random"/>
    <trip id="137" depart="9.00" from="22083318" to="22099335#7" via="22086477#0 22083732#6 -72459949#11 -22090081#0 -72459949#40"  departSpeed="max" departPos="random"/>
    <trip id="138" depart="9.00" from="72459949#27" to="-22102956#3" via="22108021#17 863192275#4 22088077#1 -72459949#39 22084209#7"  departSpeed="max" departPos="random"/>
    <trip id="139" depart="9.00" from="-22108021#13" to="585758271" via="-22088077#3 72459949#12 -849652075#1 22113123#4 22084209#4"  departSpeed="max" departPos="random"/>
    <trip id="140" depart="9.00" from="863192276#0" to="691285632" via="660564960#0 22088393#6 22092326#4 -1012168282#2 854991077#29"  departSpeed="max" departPos="random"/>
    <trip id="141" depart="9.00" from="-22100679#2" to="22084209#1" via="22102956#1 -660564960#0 -72459949#20 -1004349093#5 72459949#41"  departSpeed="max" departPos="random"/>
    <trip id="142" depart="9.00" from="-22091670#6" to="-72459949#15" via="22091670#5 -109475192#3 22112398#1 -22108021#10 -854991077#32"  departSpeed="max" departPos="random"/>
    <trip id="143" depart="9.00" from="22108021#1" to="22090081#1" via="22118686#1 22083889#1 -22084209#9 -22082435#1 -22099335#0"  departSpeed="max" departPos="random"/>
    <trip id="144" depart="9.00" from="-22113370#0" to="-22088393#0" via="22099335#7 1004349093#2 -863192273#0 -22118428#3 22112400#6"  departSpeed="max" departPos="random"/>
    <trip id="145" depart="9.00" from="-22118686#1" to="22088077#1" via="22100679#9 1004349093#3 22100676#1 -22082254#2 -854991077#10"  departSpeed="max" departPos="random"/>
    <trip id="146" depart="9.00" from="-660258992#0" to="22111943#1" via="-22103396 -22091670#5 -22112400#5 -72459949#10 -1004349093#6"  departSpeed="max" departPos="random"/>
    <trip id="147" depart="9.00" from="-849652076#3" to="72459949#23" via="22102956#2 1009205825 723528870#0 660258992#1 -22083889#0"  departSpeed="max" departPos="random"/>
    <trip id="148" depart="9.00" from="-1009205834" to="-854991077#28" via="854991077#22 72459949#28 22084209#5 22084209#3 22103396"  departSpeed="max" departPos="random"/>
    <trip id="149" depart="9.00" from="-1009205846" to="-22084794#1" via="-723528876 585758269 22090081#0 723528869 854991077#19"  departSpeed="max" departPos="random"/>
    <trip id="150" depart="10.00" from="-22109681#3" to="-72459949#0" via="22086477#3 109475192#2 -854991077#10 -691285626#0 -72459949#20"  departSpeed="max" departPos="random"/>
    <trip id="151" depart="10.00" from="1009205842" to="660564959#4" via="-22088393#2 1009205842 849652077#6 -72459949#38 22108021#6"  departSpeed="max" departPos="random"/>
    <trip id="152" depart="10.00" from="-22108021#7" to="-22100676#2" via="-22092326#3 -22101803#4 22088077#2 22113123#2 22099335#2"  departSpeed="max" departPos="random"/>
    <trip id="153" depart="10.00" from="1009205823#2" to="22091670#4" via="22112400#5 22113123#2 -863192274#1 854991077#24 22083807#0"  departSpeed="max" departPos="random"/>
    <trip id="154" depart="10.00" from="72459949#23" to="-22113370#1" via="22091436 -22092326#7 -22083732#7 -863192273#1 -660564959#2"  departSpeed="max" departPos="random"/>
    <trip id="155" depart="10.00" from="1009205834" to="72459949#26" via="-691285626#0 -863192275#2 -22082435#5 723528869 -22084209#11"  departSpeed="max" departPos="random"/>
    <trip id="156" depart="10.00" from="22088393#4" to="-863192274#1" via="1009205834 -863192277#1 22082435#7 243245951 849652077#1"  departSpeed="max" departPos="random"/>
    <trip id="157" depart="10.00" from="22092326#7" to="849652077#0" via="-723528870#3 -872830095#0 -22092326#7 -22083732#1 -22087405#3"  departSpeed="max" departPos="random"/>
    <trip id="158" depart="10.00" from="22102956#5" to="109475192#2" via="1009205829 -22100676#2 -22112398#1 -863192272#6 -863192272#8"  departSpeed="max" departPos="random"/>
    <trip id="159" depart="10.00" from="-849652075#0" to="22092326#4" via="-226850634#1 -854991077#23 -72459949#2 22087405#2 243245949#1"  departSpeed="max" departPos="random"/>
    <trip id="160" depart="10.00" from="-22086477#3" to="72459949#40" via="22100679#9 -226850634#4 22108021#2 22099335#3 849652077#7"  departSpeed="max" departPos="random"/>
    <trip id="161" depart="10.00" from="22084794#0" to="22087405#1" via="-22092326#10 -72459949#38 863192275#3 22102488 -849652077#7"  departSpeed="max" departPos="random"/>
    <trip id="162" depart="10.00" from="-660564959#3" to="22109681#0" via="-849652076#5 243245951 660564959#2 22100679#2 723313926#1"  departSpeed="max" departPos="random"/>
    <trip id="163" depart="10.00" from="109475192#2" to="-22102956#5" via="22092326#6 -854991077#6 -72459949#47 -72459949#7 -22100679#7"  departSpeed="max" departPos="random"/>
    <trip id="164" depart="10.00" from="1004349093#1" to="22116242" via="-22108021#20 -22091670#6 -22084209#2 72459949#11 -22087405#1"  departSpeed="max" departPos="random"/>
    <trip id="165" depart="11.00" from="72459949#7" to="-22099335#2" via="-168925354 -72459949#17 22116242 -22091436 -849652076#5"  departSpeed="max" departPos="random"/>
    <trip id="166" depart="11.00" from="22113123#3" to="-22108021#6" via="660258993#2 -22099335#7 -863192272#6 -854991077#25 22100679#7"  departSpeed="max" departPos="random"/>
    <trip id="167" depart="11.00" from="-22118686#2" to="-863192279" via="22112400#0 -863192274#1 168925359#1 -691285626#0 660258993#1"  departSpeed="max" departPos="random"/>
    <trip id="168" depart="11.00" from="-72459949#48" to="109475192#6" via="863192272#10 863192280#1 -863192277#1 -226850634#0 -849652077#1"  departSpeed="max" departPos="random"/>