<?xml version="1.0"?>
<!-- generated on 2022-01-26 09:27:41.522522 by $Id: randomTrips.py 23999 2017-04-21 09:04:47Z behrisch $
  options: -n sumo.net.xml -r sumo.rou.xml -b 0 -e 1000 -p 0.3
-->
<routes xmlns:xsi="http://www.w3.org/2001/XMLSchema-instance" xsi:noNamespaceSchemaLocation="http://sumo.dlr.de/xsd/routes_file.xsd">
    <trip id="0" depart="0.00" from="577120473_2" to="795480097_2"/>
    <trip id="1" depart="0.30" from="72459949_7" to="586164513"/>
    <trip id="2" depart="0.60" from="-854991077_6" to="243242210_17"/>
    <trip id="3" depart="0.90" from="585657192_4" to="-72459949_3"/>
    <trip id="4" depart="1.20" from="863192276_1" to="243244301"/>
    <trip id="5" depart="1.50" from="585657202_1" to="901087611"/>
    <trip id="6" depart="1.80" from="854991077_15" to="577120435_2"/>
    <trip id="7" depart="2.10" from="-854991077_13" to="-723528869"/>
    <trip id="8" depart="2.40" from="849652076_6" to="585657198_2"/>
    <trip id="9" depart="2.70" from="22100679_8" to="849652076_4"/>
    <trip id="10" depart="3.00" from="22113370_2" to="889461341"/>
    <trip id="11" depart="3.30" from="607171359" to="243244303_2"/>
    <trip id="12" depart="3.60" from="585657177_1" to="72459949_14"/>
    <trip id="13" depart="3.90" from="-854991077_8" to="243244304"/>
    <trip id="14" depart="4.20" from="889467739_2" to="660258993_1"/>
    <trip id="15" depart="4.50" from="585657193_7" to="586164507"/>
    <trip id="16" depart="4.80" from="872830095_2" to="243244320_2"/>
    <trip id="17" depart="5.10" from="72459949_26" to="-723528874"/>
    <trip id="18" depart="5.40" from="586164518" to="577120417"/>
    <trip id="19" depart="5.70" from="577120475_1" to="1009205825"/>
    <trip id="20" depart="6.00" from="577120449_1" to="577120415"/>
    <trip id="21" depart="6.30" from="22092326_1" to="72459949_22"/>
    <trip id="22" depart="6.60" from="863192277_5" to="-854991077_8"/>
    <trip id="23" depart="6.90" from="586164514_2" to="22101398_2"/>
    <trip id="24" depart="7.20" from="585657193_6" to="72459949_23"/>
    <trip id="25" depart="7.50" from="577120427" to="723528867"/>
    <trip id="26" depart="7.80" from="72459949_39" to="606549782"/>
    <trip id="27" depart="8.10" from="723528868" to="-723528876"/>
    <trip id="28" depart="8.40" from="243244310" to="854991077_6"/>
    <trip id="29" depart="8.70" from="22099335_3" to="22100676_4"/>
    <trip id="30" depart="9.00" from="243244313_6" to="889467741_1"/>
    <trip id="31" depart="9.30" from="22099335_2" to="-72459949_4"/>
    <trip id="32" depart="9.60" from="22092326_7" to="660258992_2"/>
    <trip id="33" depart="9.90" from="586164506_2" to="586164503"/>
    <trip id="34" depart="10.20" from="691751487" to="22113123_4"/>
    <trip id="35" depart="10.50" from="72459949_19" to="586164506_3"/>
    <trip id="36" depart="10.80" from="723528868" to="72459949_39"/>
    <trip id="37" depart="11.10" from="72459949_36" to="22118428_2"/>
    <trip id="38" depart="11.40" from="22100676_2" to="22112400_2"/>
    <trip id="39" depart="11.70" from="586164514_1" to="889461335"/>
    <trip id="40" depart="12.00" from="872831463" to="854991077_23"/>
    <trip id="41" depart="12.30" from="586164503" to="-854991077_23"/>
    <trip id="42" depart="12.60" from="739870761_4" to="789801131_2"/>
    <trip id="43" depart="12.90" from="72459949_13" to="243244320_1"/>
    <trip id="44" depart="13.20" from="577120447" to="-723528876"/>
    <trip id="45" depart="13.50" from="739870761_2" to="243244307"/>
    <trip id="46" depart="13.80" from="585657192_3" to="243244303_1"/>
    <trip id="47" depart="14.10" from="72459949_14" to="72459949_37"/>
    <trip id="48" depart="14.40" from="243244303_1" to="577120471"/>
    <trip id="49" depart="14.70" from="22118428_4" to="1009205824_3"/>
    <trip id="50" depart="15.00" from="586164505_1" to="22092326_3"/>
    <trip id="51" depart="15.30" from="577120473_1" to="-72459949_36"/>
    <trip id="52" depart="15.60" from="-72459949_30" to="-1009205824_2"/>
    <trip id="53" depart="15.90" from="22101400_1" to="22112647_2"/>
    <trip id="54" depart="16.20" from="863192277_4" to="72459949_12"/>
    <trip id="55" depart="16.50" from="586164517_1" to="586164511_2"/>
    <trip id="56" depart="16.80" from="577120477_7" to="889467741_1"/>
    <trip id="57" depart="17.10" from="72459949_7" to="586164523_2"/>
    <trip id="58" depart="17.40" from="723528876" to="72459949_13"/>
    <trip id="59" depart="17.70" from="22118428_2" to="789801129_3"/>
    <trip id="60" depart="18.00" from="577120460_1" to="243244320_1"/>
    <trip id="61" depart="18.30" from="22084209_1" to="22101398_3"/>
    <trip id="62" depart="18.60" from="577120473_2" to="577120431"/>
    <trip id="63" depart="18.90" from="243244306" to="243242210_3"/>
    <trip id="64" depart="19.20" from="22100679_4" to="789801132"/>
    <trip id="65" depart="19.50" from="1009205827_1" to="586164512_2"/>
    <trip id="66" depart="19.80" from="577120396_3" to="243244297_1"/>
    <trip id="67" depart="20.10" from="585657198_1" to="577120392_1"/>
    <trip id="68" depart="20.40" from="516436258" to="22100679_6"/>
    <trip id="69" depart="20.70" from="22113123_1" to="22084209_2"/>
    <trip id="70" depart="21.00" from="585657178" to="1009205828_3"/>
    <trip id="71" depart="21.30" from="577120392_2" to="22100676_2"/>
    <trip id="72" depart="21.60" from="-723528869" to="586164523_1"/>
    <trip id="73" depart="21.90" from="585657193_3" to="586164519"/>
    <trip id="74" depart="22.20" from="795480099_1" to="723528869"/>
    <trip id="75" depart="22.50" from="72459949_37" to="243244297_2"/>
    <trip id="76" depart="22.80" from="585657195" to="72459949_33"/>
    <trip id="77" depart="23.10" from="889467739_3" to="243244305_5"/>
    <trip id="78" depart="23.40" from="22099335_2" to="795480101_1"/>
    <trip id="79" depart="23.70" from="577120427" to="72459949_24"/>
    <trip id="80" depart="24.00" from="585657174_1" to="863192277_5"/>
    <trip id="81" depart="24.30" from="-854991077_17" to="577120477_7"/>
    <trip id="82" depart="24.60" from="577120473_2" to="889467741_2"/>
    <trip id="83" depart="24.90" from="243242210_14" to="586164514_3"/>
    <trip id="84" depart="25.20" from="72459949_3" to="577120460_2"/>
    <trip id="85" depart="25.50" from="854991077_15" to="22101964"/>
    <trip id="86" depart="25.80" from="854991077_23" to="586164511_2"/>
    <trip id="87" depart="26.10" from="-72459949_10" to="72459949_18"/>
    <trip id="88" depart="26.40" from="586164524_2" to="-723528876"/>
    <trip id="89" depart="26.70" from="723528876" to="1009205828_2"/>
    <trip id="90" depart="27.00" from="577120423" to="-72459949_1"/>
    <trip id="91" depart="27.30" from="577120469_2" to="739870761_4"/>
    <trip id="92" depart="27.60" from="-854991077_22" to="243244313_5"/>
    <trip id="93" depart="27.90" from="577120473_1" to="72459949_7"/>
    <trip id="94" depart="28.20" from="577120441_1" to="-72459949_33"/>
    <trip id="95" depart="28.50" from="22100676_1" to="243244303_2"/>
    <trip id="96" depart="28.80" from="585657199_2" to="723528864_1"/>
    <trip id="97" depart="29.10" from="586164496" to="586164524_2"/>
    <trip id="98" depart="29.40" from="586164519" to="585657204_1"/>
    <trip id="99" depart="29.70" from="243244311" to="577120459"/>
    <trip id="100" depart="30.00" from="243244309_1" to="-854991077_3"/>
    <trip id="101" depart="30.30" from="723528874" to="577120441_3"/>
    <trip id="102" depart="30.60" from="577120383_1" to="22099335_3"/>
    <trip id="103" depart="30.90" from="-854991077_6" to="-72459949_20"/>
    <trip id="104" depart="31.20" from="577120403" to="22118428_5"/>
    <trip id="105" depart="31.50" from="1009205827_1" to="849652075_1"/>
    <trip id="106" depart="31.80" from="72459949_21" to="586164522"/>
    <trip id="107" depart="32.10" from="586164523_1" to="243244311"/>
    <trip id="108" depart="32.40" from="243244298" to="585657177_2"/>
    <trip id="109" depart="32.70" from="-1009205827_1" to="22113123_4"/>
    <trip id="110" depart="33.00" from="889467739_1" to="22118428_3"/>
    <trip id="111" depart="33.30" from="577120412" to="22112400_3"/>
    <trip id="112" depart="33.60" from="72459949_5" to="577120388_1"/>
    <trip id="113" depart="33.90" from="577120449_1" to="849652075_3"/>
    <trip id="114" depart="34.20" from="739870761_2" to="849652076_9"/>
    <trip id="115" depart="34.50" from="243244299_1" to="585657193_5"/>
    <trip id="116" depart="34.80" from="243244303_2" to="577120449_2"/>
    <trip id="117" depart="35.10" from="854991077_19" to="863192277_3"/>
    <trip id="118" depart="35.40" from="723528866" to="22101400_2"/>
    <trip id="119" depart="35.70" from="854991077_13" to="243244314_2"/>
    <trip id="120" depart="36.00" from="586164520" to="849652076_8"/>
    <trip id="121" depart="36.30" from="577120460_4" to="739870761_4"/>
    <trip id="122" depart="36.60" from="243242210_2" to="723528869"/>
    <trip id="123" depart="36.90" from="795480101_1" to="854991077_10"/>
    <trip id="124" depart="37.20" from="-72459949_10" to="577120390"/>
    <trip id="125" depart="37.50" from="854991077_19" to="243244312"/>
    <trip id="126" depart="37.80" from="795480097_1" to="577120388_2"/>
    <trip id="127" depart="38.10" from="22100679_8" to="889461338"/>
    <trip id="128" depart="38.40" from="243244320_2" to="-854991077_19"/>
    <trip id="129" depart="38.70" from="577120478_1" to="243244292"/>
    <trip id="130" depart="39.00" from="243244299_1" to="577120406"/>
    <trip id="131" depart="39.30" from="243244317" to="-72459949_36"/>
    <trip id="132" depart="39.60" from="585657193_5" to="795480098"/>
    <trip id="133" depart="39.90" from="606549776_1" to="243244306"/>
    <trip id="134" depart="40.20" from="577120464" to="-72459949_19"/>
    <trip id="135" depart="40.50" from="577120441_2" to="615043125"/>
    <trip id="136" depart="40.80" from="22101400_1" to="660258992_2"/>
    <trip id="137" depart="41.10" from="22100679_8" to="243242210_9"/>
    <trip id="138" depart="41.40" from="22101398_4" to="577120445_1"/>
    <trip id="139" depart="41.70" from="243244316_1" to="243244317"/>
    <trip id="140" depart="42.00" from="585657198_3" to="585657179"/>
    <trip id="141" depart="42.30" from="-72459949_38" to="577120381_2"/>
    <trip id="142" depart="42.60" from="723528872" to="585657193_6"/>
    <trip id="143" depart="42.90" from="585657192_1" to="795480099_1"/>
    <trip id="144" depart="43.20" from="577120425" to="585657202_1"/>
    <trip id="145" depart="43.50" from="243244306" to="-854991077_23"/>
    <trip id="146" depart="43.80" from="1009205828_3" to="585657178"/>
    <trip id="147" depart="44.10" from="577120441_3" to="22101398_3"/>
    <trip id="148" depart="44.40" from="-1009205823_3" to="889461343"/>
    <trip id="149" depart="44.70" from="585657203_1" to="-72459949_6"/>
    <trip id="150" depart="45.00" from="243244319" to="243242210_8"/>
    <trip id="151" depart="45.30" from="516440741" to="243245663_2"/>
    <trip id="152" depart="45.60" from="586164505_2" to="577120412"/>
    <trip id="153" depart="45.90" from="22101398_2" to="577120460_1"/>
    <trip id="154" depart="46.20" from="22100709" to="795480101_2"/>
    <trip id="155" depart="46.50" from="577120441_1" to="-723528870_3"/>
    <trip id="156" depart="46.80" from="22092326_6" to="585657173"/>
    <trip id="157" depart="47.10" from="577120438" to="586164512_2"/>
    <trip id="158" depart="47.40" from="243245664" to="1009205824_2"/>
    <trip id="159" depart="47.70" from="243244294" to="243242210_10"/>
    <trip id="160" depart="48.00" from="889459732_1" to="854991077_11"/>
    <trip id="161" depart="48.30" from="889459733" to="586164506_2"/>
    <trip id="162" depart="48.60" from="72459949_30" to="586164523_2"/>
    <trip id="163" depart="48.90" from="-72459949_14" to="22084209_4"/>
    <trip id="164" depart="49.20" from="-72459949_10" to="-72459949_20"/>
    <trip id="165" depart="49.50" from="577120465" to="586164524_1"/>
    <trip id="166" depart="49.80" from="22084209_1" to="723528871"/>
    <trip id="167" depart="50.10" from="-849652075_3" to="243244305_1"/>
    <trip id="168" depart="50.40" from="22084209_7" to="585657191"/>
    <trip id="169" depart="50.70" from="22092326_3" to="-72459949_19"/>
    <trip id="170" depart="51.00" from="22100676_4" to="585657193_6"/>
    <trip id="171" depart="51.30" from="586164523_2" to="585657199_5"/>
    <trip id="172" depart="51.60" from="577120478_1" to="243244297_2"/>
    <trip id="173" depart="51.90" from="585657193_7" to="243244311"/>
    <trip id="174" depart="52.20" from="577120475_4" to="72459949_7"/>
    <trip id="175" depart="52.50" from="243244317" to="243244297_1"/>
    <trip id="176" depart="52.80" from="739870761_2" to="22099335_2"/>
    <trip id="177" depart="53.10" from="-72459949_28" to="577120475_4"/>
    <trip id="178" depart="53.40" from="872830095_2" to="22100679_6"/>
    <trip id="179" depart="53.70" from="577120466" to="-72459949_24"/>
    <trip id="180" depart="54.00" from="-72459949_37" to="577120443"/>
    <trip id="181" depart="54.30" from="586164508" to="577120460_3"/>
    <trip id="182" depart="54.60" from="243244295" to="-854991077_22"/>
    <trip id="183" depart="54.90" from="72459949_33" to="243244305_4"/>
    <trip id="184" depart="55.20" from="-849652075_3" to="585657199_4"/>
    <trip id="185" depart="55.50" from="-72459949_16" to="243244297_2"/>
    <trip id="186" depart="55.80" from="22092326_3" to="739870761_1"/>
    <trip id="187" depart="56.10" from="577120388_2" to="72459949_16"/>
    <trip id="188" depart="56.40" from="1009205824_2" to="577120469_2"/>
    <trip id="189" depart="56.70" from="1009205826" to="795480102"/>
    <trip id="190" depart="57.00" from="243244305_2" to="-854991077_7"/>
    <trip id="191" depart="57.30" from="243244313_2" to="722462235"/>
    <trip id="192" depart="57.60" from="585657193_2" to="-849652075_1"/>
    <trip id="193" depart="57.90" from="-854991077_8" to="243242210_17"/>
    <trip id="194" depart="58.20" from="-72459949_28" to="577120437"/>
    <trip id="195" depart="58.50" from="243244316_1" to="467502105"/>
    <trip id="196" depart="58.80" from="585657204_1" to="243244295"/>
    <trip id="197" depart="59.10" from="577120441_3" to="585657191"/>
    <trip id="198" depart="59.40" from="585657176_2" to="243245599"/>
    <trip id="199" depart="59.70" from="-1009205823_1" to="243244310"/>
    <trip id="200" depart="60.00" from="849652076_1" to="-72459949_15"/>
    <trip id="201" depart="60.30" from="-854991077_13" to="-72459949_39"/>
    <trip id="202" depart="60.60" from="72459949_11" to="243242210_12"/>
    <trip id="203" depart="60.90" from="889461343" to="243244314_2"/>
    <trip id="204" depart="61.20" from="1009205823_2" to="-72459949_23"/>
    <trip id="205" depart="61.50" from="72459949_26" to="22083807_2"/>
    <trip id="206" depart="61.80" from="-72459949_3" to="585657202_1"/>
    <trip id="207" depart="62.10" from="243244291" to="72459949_32"/>
    <trip id="208" depart="62.40" from="-72459949_31" to="889467742"/>
    <trip id="209" depart="62.70" from="577120429" to="-854991077_7"/>
    <trip id="210" depart="63.00" from="795480099_1" to="577120476_1"/>
    <trip id="211" depart="63.30" from="-72459949_23" to="889576722"/>
    <trip id="212" depart="63.60" from="585657193_6" to="586164508"/>
    <trip id="213" depart="63.90" from="72459949_8" to="577120438"/>
    <trip id="214" depart="64.20" from="723528875" to="739870763"/>
    <trip id="215" depart="64.50" from="586164511_2" to="722462231"/>
    <trip id="216" depart="64.80" from="243244315_1" to="607171360"/>
    <trip id="217" depart="65.10" from="72459949_7" to="586164505_1"/>
    <trip id="218" depart="65.40" from="577120387" to="243242210_10"/>
    <trip id="219" depart="65.70" from="243244298" to="789801131_1"/>
    <trip id="220" depart="66.00" from="-72459949_31" to="22100679_8"/>
    <trip id="221" depart="66.30" from="22112400_4" to="872830095_4"/>
    <trip id="222" depart="66.60" from="-849652075_4" to="795480097_1"/>
    <trip id="223" depart="66.90" from="243244297_7" to="585657177_2"/>
    <trip id="224" depart="67.20" from="889467739_2" to="243244313_5"/>
    <trip id="225" depart="67.50" from="795480098" to="577120455"/>
    <trip id="226" depart="67.80" from="72459949_24" to="72459949_34"/>
    <trip id="227" depart="68.10" from="863192277_2" to="-72459949_18"/>
    <trip id="228" depart="68.40" from="854991077_24" to="467502105"/>
    <trip id="229" depart="68.70" from="-854991077_11" to="243245670"/>
    <trip id="230" depart="69.00" from="872830095_3" to="577120435_1"/>
    <trip id="231" depart="69.30" from="586164503" to="1009205828_2"/>
    <trip id="232" depart="69.60" from="585657191" to="22092326_7"/>
    <trip id="233" depart="69.90" from="789801131_1" to="585657172_2"/>
    <trip id="234" depart="70.20" from="1009205824_3" to="585657201"/>
    <trip id="235" depart="70.50" from="-854991077_18" to="-1009205824_2"/>
    <trip id="236" depart="70.80" from="72459949_33" to="243244313_2"/>
    <trip id="237" depart="71.10" from="-854991077_14" to="243242210_9"/>
    <trip id="238" depart="71.40" from="243244314_2" to="243245664"/>
    <trip id="239" depart="71.70" from="-723528870_1" to="872831463"/>
    <trip id="240" depart="72.00" from="577120473_2" to="243244305_5"/>
    <trip id="241" depart="72.30" from="-72459949_24" to="516440740"/>
    <trip id="242" depart="72.60" from="243244297_5" to="577120408_2"/>
    <trip id="243" depart="72.90" from="872830095_4" to="789801131_2"/>
    <trip id="244" depart="73.20" from="72459949_30" to="789801130"/>
    <trip id="245" depart="73.50" from="-723528869" to="849652075_1"/>
    <trip id="246" depart="73.80" from="72459949_15" to="22118428_2"/>
    <trip id="247" depart="74.10" from="-854991077_22" to="1009205828_1"/>
    <trip id="248" depart="74.40" from="-72459949_39" to="577120449_2"/>
    <trip id="249" depart="74.70" from="22101398_3" to="889461339_2"/>
    <trip id="250" depart="75.00" from="-72459949_26" to="243244307"/>
    <trip id="251" depart="75.30" from="586164523_2" to="-72459949_10"/>
    <trip id="252" depart="75.60" from="586164513" to="22100676_2"/>
    <trip id="253" depart="75.90" from="854991077_9" to="22084209_6"/>
    <trip id="254" depart="76.20" from="586164524_1" to="243242210_4"/>
    <trip id="255" depart="76.50" from="723528870_2" to="243242210_5"/>
    <trip id="256" depart="76.80" from="-72459949_11" to="22083807_1"/>
    <trip id="257" depart="77.10" from="854991077_1" to="586164524_1"/>
    <trip id="258" depart="77.40" from="586164512_1" to="577120383_2"/>
    <trip id="259" depart="77.70" from="22112647_1" to="723528870_1"/>
    <trip id="260" depart="78.00" from="243244297_7" to="723528876"/>
    <trip id="261" depart="78.30" from="22118428_5" to="863192276_1"/>
    <trip id="262" depart="78.60" from="243242210_2" to="22100679_5"/>
    <trip id="263" depart="78.90" from="585657174_2" to="22088826"/>
    <trip id="264" depart="79.20" from="607171359" to="-72459949_11"/>
    <trip id="265" depart="79.50" from="-72459949_6" to="849652076_1"/>
    <trip id="266" depart="79.80" from="723528875" to="586164519"/>
    <trip id="267" depart="80.10" from="243244293" to="722462232"/>
    <trip id="268" depart="80.40" from="691751487" to="-854991077_3"/>
    <trip id="269" depart="80.70" from="22092326_9" to="577120449_2"/>
    <trip id="270" depart="81.00" from="577120387" to="577120417"/>
    <trip id="271" depart="81.30" from="586164504" to="22101398_3"/>
    <trip id="272" depart="81.60" from="22100679_8" to="243242210_6"/>
    <trip id="273" depart="81.90" from="723528867" to="606549777"/>
    <trip id="274" depart="82.20" from="585657199_6" to="586164513"/>
    <trip id="275" depart="82.50" from="72459949_11" to="1009205828_1"/>
    <trip id="276" depart="82.80" from="72459949_10" to="586164514_1"/>
    <trip id="277" depart="83.10" from="72459949_24" to="22100679_7"/>
    <trip id="278" depart="83.40" from="585657172_2" to="585657193_2"/>
    <trip id="279" depart="83.70" from="-72459949_7" to="577120445_2"/>
    <trip id="280" depart="84.00" from="585657173" to="739870763"/>
    <trip id="281" depart="84.30" from="72459949_6" to="586164516_2"/>
    <trip id="282" depart="84.60" from="72459949_22" to="577120412"/>
    <trip id="283" depart="84.90" from="739870761_3" to="243244313_2"/>
    <trip id="284" depart="85.20" from="577120476_3" to="577120463"/>
    <trip id="285" depart="85.50" from="586164506_1" to="-854991077_17"/>
    <trip id="286" depart="85.80" from="577120449_2" to="22112647_2"/>
    <trip id="287" depart="86.10" from="243244307" to="1009205826"/>
    <trip id="288" depart="86.40" from="72459949_12" to="-854991077_7"/>
    <trip id="289" depart="86.70" from="577120387" to="577120443"/>
    <trip id="290" depart="87.00" from="585657176_2" to="243244315_2"/>
    <trip id="291" depart="87.30" from="72459949_24" to="889459732_1"/>
    <trip id="292" depart="87.60" from="585657199_3" to="606549776_1"/>
    <trip id="293" depart="87.90" from="1009205824_4" to="22092326_10"/>
    <trip id="294" depart="88.20" from="243244313_2" to="585657192_3"/>
    <trip id="295" depart="88.50" from="-854991077_14" to="-723528871"/>
    <trip id="296" depart="88.80" from="22084209_4" to="606549775"/>
    <trip id="297" depart="89.10" from="-854991077_20" to="586164524_1"/>
    <trip id="298" depart="89.40" from="22092326_8" to="722462233"/>
    <trip id="299" depart="89.70" from="1009205826" to="22101400_2"/>
    <trip id="300" depart="90.00" from="889459733" to="586164510"/>
    <trip id="301" depart="90.30" from="889459733" to="72459949_3"/>
    <trip id="302" depart="90.60" from="72459949_20" to="577120396_2"/>
    <trip id="303" depart="90.90" from="577120419_3" to="577120437"/>
    <trip id="304" depart="91.20" from="577120441_1" to="-72459949_28"/>
    <trip id="305" depart="91.50" from="854991077_19" to="577120471"/>
    <trip id="306" depart="91.80" from="243244305_1" to="586164514_2"/>
    <trip id="307" depart="92.10" from="22101400_1" to="-72459949_24"/>
    <trip id="308" depart="92.40" from="-854991077_23" to="243244315_2"/>
    <trip id="309" depart="92.70" from="22100679_5" to="585657203_1"/>
    <trip id="310" depart="93.00" from="660258992_1" to="-854991077_7"/>
    <trip id="311" depart="93.30" from="606549776_1" to="901087611"/>
    <trip id="312" depart="93.60" from="22101398_3" to="-72459949_13"/>
    <trip id="313" depart="93.90" from="1009205827_1" to="585657199_6"/>
    <trip id="314" depart="94.20" from="-723528870_3" to="243244313_4"/>
    <trip id="315" depart="94.50" from="789801129_3" to="243244314_1"/>
    <trip id="316" depart="94.80" from="849652075_2" to="577120460_2"/>
    <trip id="317" depart="95.10" from="854991077_21" to="72459949_24"/>
    <trip id="318" depart="95.40" from="722462232" to="586164524_3"/>
    <trip id="319" depart="95.70" from="586164503" to="889461338"/>
    <trip id="320" depart="96.00" from="-1009205824_1" to="889461344"/>
    <trip id="321" depart="96.30" from="72459949_23" to="849652076_10"/>
    <trip id="322" depart="96.60" from="739870761_1" to="586164514_3"/>
    <trip id="323" depart="96.90" from="586164503" to="72459949_35"/>
    <trip id="324" depart="97.20" from="22100676_2" to="585657199_1"/>
    <trip id="325" depart="97.50" from="849652076_5" to="-854991077_9"/>
    <trip id="326" depart="97.80" from="72459949_9" to="903026028"/>
    <trip id="327" depart="98.10" from="585657177_1" to="72459949_4"/>
    <trip id="328" depart="98.40" from="-854991077_9" to="586164504"/>
    <trip id="329" depart="98.70" from="22092326_6" to="586164519"/>
    <trip id="330" depart="99.00" from="22112400_2" to="849652076_3"/>
    <trip id="331" depart="99.30" from="789801129_1" to="849652076_6"/>
    <trip id="332" depart="99.60" from="577120457" to="577120394"/>
    <trip id="333" depart="99.90" from="-72459949_3" to="-849652075_4"/>
    <trip id="334" depart="100.20" from="585657195" to="22118428_3"/>
    <trip id="335" depart="100.50" from="516440740" to="243242210_1"/>
    <trip id="336" depart="100.80" from="585657201" to="577120419_4"/>
    <trip id="337" depart="101.10" from="22112400_2" to="586164509"/>
    <trip id="338" depart="101.40" from="243242210_13" to="72459949_15"/>
    <trip id="339" depart="101.70" from="889459732_2" to="722462234"/>
    <trip id="340" depart="102.00" from="-854991077_3" to="243242210_7"/>
    <trip id="341" depart="102.30" from="577120438" to="-849652075_1"/>
    <trip id="342" depart="102.60" from="577120388_3" to="739870762_1"/>
    <trip id="343" depart="102.90" from="723528870_1" to="577120447"/>
    <trip id="344" depart="103.20" from="854991077_6" to="854991077_12"/>
    <trip id="345" depart="103.50" from="72459949_36" to="-723528871"/>
    <trip id="346" depart="103.80" from="577120473_1" to="577120385"/>
    <trip id="347" depart="104.10" from="739870761_3" to="889459734"/>
    <trip id="348" depart="104.40" from="243244316_1" to="577120396_2"/>
    <trip id="349" depart="104.70" from="586164510" to="-723528871"/>
    <trip id="350" depart="105.00" from="72459949_14" to="-854991077_1"/>
    <trip id="351" depart="105.30" from="243244319" to="243242210_10"/>
    <trip id="352" depart="105.60" from="586164523_1" to="586164524_5"/>
    <trip id="353" depart="105.90" from="577120470" to="586164522"/>
    <trip id="354" depart="106.20" from="-72459949_28" to="789801129_2"/>
    <trip id="355" depart="106.50" from="585657198_2" to="577120443"/>
    <trip id="356" depart="106.80" from="516436257" to="586164509"/>
    <trip id="357" depart="107.10" from="889467741_1" to="901087611"/>
    <trip id="358" depart="107.40" from="-72459949_38" to="577120477_3"/>
    <trip id="359" depart="107.70" from="243245600" to="72459949_22"/>
    <trip id="360" depart="108.00" from="243244291" to="795480101_2"/>
    <trip id="361" depart="108.30" from="889459732_1" to="606549775"/>
    <trip id="362" depart="108.60" from="243242210_17" to="-72459949_32"/>
    <trip id="363" depart="108.90" from="789801129_2" to="585657172_2"/>
    <trip id="364" depart="109.20" from="243244313_6" to="854991077_4"/>
    <trip id="365" depart="109.50" from="243245664" to="585657199_1"/>
    <trip id="366" depart="109.80" from="-72459949_36" to="-72459949_5"/>
    <trip id="367" depart="110.10" from="577120419_1" to="-72459949_23"/>
    <trip id="368" depart="110.40" from="585657192_1" to="586164505_3"/>
    <trip id="369" depart="110.70" from="585657192_4" to="577120475_4"/>
    <trip id="370" depart="111.00" from="723528868" to="577120404"/>
    <trip id="371" depart="111.30" from="585657196" to="243244305_4"/>
    <trip id="372" depart="111.60" from="22113370_2" to="577120412"/>
    <trip id="373" depart="111.90" from="22113123_3" to="-72459949_22"/>
    <trip id="374" depart="112.20" from="930246687" to="586164505_3"/>
    <trip id="375" depart="112.50" from="-72459949_16" to="-72459949_36"/>
    <trip id="376" depart="112.80" from="22084209_2" to="72459949_37"/>
    <trip id="377" depart="113.10" from="516436260" to="849652076_9"/>
    <trip id="378" depart="113.40" from="22099335_1" to="789801131_2"/>
    <trip id="379" depart="113.70" from="854991077_11" to="243244299_4"/>
    <trip id="380" depart="114.00" from="243242210_8" to="723318053"/>
    <trip id="381" depart="114.30" from="854991077_15" to="586164508"/>
    <trip id="382" depart="114.60" from="243244298" to="243244302"/>
    <trip id="383" depart="114.90" from="22113123_2" to="577120445_1"/>
    <trip id="384" depart="115.20" from="243244297_5" to="577120410"/>
    <trip id="385" depart="115.50" from="72459949_20" to="849652076_6"/>
    <trip id="386" depart="115.80" from="243244314_1" to="243242210_12"/>
    <trip id="387" depart="116.10" from="889461339_1" to="577120469_2"/>
    <trip id="388" depart="116.40" from="-72459949_25" to="789801132"/>
    <trip id="389" depart="116.70" from="243242210_13" to="22084209_5"/>
    <trip id="390" depart="117.00" from="-854991077_18" to="585657193_1"/>
    <trip id="391" depart="117.30" from="22083889_1" to="577120435_2"/>
    <trip id="392" depart="117.60" from="586164524_5" to="889461342"/>
    <trip id="393" depart="117.90" from="739870762_2" to="586164511_2"/>
    <trip id="394" depart="118.20" from="739870761_2" to="585657197"/>
    <trip id="395" depart="118.50" from="585657192_4" to="72459949_29"/>
    <trip id="396" depart="118.80" from="854991077_3" to="243244306"/>
    <trip id="397" depart="119.10" from="243244305_2" to="-723528874"/>
    <trip id="398" depart="119.40" from="577120408_2" to="243244313_5"/>
    <trip id="399" depart="119.70" from="-849652075_1" to="-72459949_39"/>
    <trip id="400" depart="120.00" from="243242210_17" to="577120457"/>
    <trip id="401" depart="120.30" from="889461341" to="585657203_3"/>
    <trip id="402" depart="120.60" from="22101400_1" to="586164512_2"/>
    <trip id="403" depart="120.90" from="22101398_3" to="585657199_4"/>
    <trip id="404" depart="121.20" from="854991077_7" to="-854991077_9"/>
    <trip id="405" depart="121.50" from="577120429" to="-72459949_21"/>
    <trip id="406" depart="121.80" from="243244315_1" to="1009205824_3"/>
    <trip id="407" depart="122.10" from="-854991077_9" to="586164523_2"/>
    <trip id="408" depart="122.40" from="22101398_4" to="585657174_1"/>
    <trip id="409" depart="122.70" from="577120392_2" to="577120443"/>
    <trip id="410" depart="123.00" from="854991077_24" to="22092326_7"/>
    <trip id="411" depart="123.30" from="-72459949_32" to="72459949_19"/>
    <trip id="412" depart="123.60" from="577120457" to="22112400_4"/>
    <trip id="413" depart="123.90" from="-723528870_4" to="-854991077_24"/>
    <trip id="414" depart="124.20" from="22092326_3" to="-854991077_19"/>
    <trip id="415" depart="124.50" from="585657204_3" to="577120473_1"/>
    <trip id="416" depart="124.80" from="243244301" to="585657204_1"/>