<?xml version="1.0" encoding="UTF-8"?>

<!-- generated on 2022-01-15 16:07:27 by Eclipse SUMO duarouter Version 1.11.0
<configuration xmlns:xsi="http://www.w3.org/2001/XMLSchema-instance" xsi:noNamespaceSchemaLocation="http://sumo.dlr.de/xsd/duarouterConfiguration.xsd">

    <input>
        <net-file value="sumo.net.xml"/>
        <route-files value="trips.trips.xml"/>
    </input>

    <output>
        <output-file value="sumo.rou.xml"/>
        <alternatives-output value="sumo.rou.alt.xml"/>
    </output>

    <time>
        <begin value="0"/>
        <end value="1000"/>
    </time>

    <report>
        <no-warnings value="true"/>
        <ignore-errors value="true"/>
        <no-step-log value="true"/>
    </report>

</configuration>
-->

<routes xmlns:xsi="http://www.w3.org/2001/XMLSchema-instance" xsi:noNamespaceSchemaLocation="http://sumo.dlr.de/xsd/routes_file.xsd">
    <vehicle id="224" depart="11.00" departPos="random" departSpeed="max">
        <route edges="484878996_3 -484878996_3 -484878996_5 -484878996_2 -484878996_1 -330310713_2 8796076_1 8796076_3 8797131_9 -484878996_4 -484878996_3 -484878996_5 -484878996_2 -484878996_1 -8796216_2 -8796216_1 -397303084_2 -397303084_1 -397303085 374711603 777809605_2 468422740 686997726 468422741 468421253 468421254 468421252 8797819_1 468421256_1 468421256_2 468421255 589533491 752702309 125568090 -589533495_2 -589533495_1 44465157 589533490 589533498 468422742 590645027 468421268 374711603 777809605_2 468422740 686997726 589533491 752702309 125568090 -589533495_2 -589533495_1 -50568411_1 -397303083 -397303086 -397303084_2 -397303084_1 -397303085 374711603 777809605_2 468422740 686997726 468422741 468421253 468421254 468421252 8797819_1 8797819_2 8797819_3 8797399_2 8797399_3 -589533495_2 -589533495_1 -50568411_1 -397303083 -397303086 8796216_1 8796216_2 484878996_1 484878996_2 8797259_1 8797259_5 8797259_6 8797259_4 8797259_7"/>
    </vehicle>
    <vehicle id="432" depart="21.00" departPos="random" departSpeed="max">
        <route edges="8795503_3 330310753_1 59432574 374711603 777809605_2 468422740 686997726 468422741 468421253 468421254 468421252 8797819_1 468421256_1 468421256_2 468421255 589533491 752702309 125568090 -589533495_2 -589533495_1 -50568411_1 -397303083 -397303086 8796216_1 8796216_2 484878996_1 484878996_2 484878996_5 484878996_3 484878996_4 -484878996_4 -484878996_3 -484878996_5 -484878996_2 -484878996_1 -8796216_2 -8796216_1 -397303084_2 -397303084_1 -397303085 374711603 777809605_2 468422740 686997726 468422741 468421253 468421254 468421252 8797819_1 468421256_1 468421256_2 468421255 589533491 752702309 125568090 -589533495_2 -589533495_1 -50568411_1 -397303083 -397303086 -397303084_2 -397303084_1 -397303085 -8796601 8796601 38015401 330310713_1 330310713_3 -330310713_3 330310713_3 330310713_2 -8796216_2 -8796216_1 -397303084_2 -397303084_1 -397303085 374711603 777809605_2 468422740 686997726 468422741 468421253 468421254 468421252"/>
    </vehicle>
    <vehicle id="591" depart="29.00" departPos="random" departSpeed="max">
        <route edges="206857465_2 206857465_3 621527175_8 621527175_10 621527175_11 719026490_1 565167440 564768404_2 719395506_1 719395506_9 719395506_5 719395506_11 719395506_10 719395506_8 719395506_7 -156723058 8796353_3 8795651_2 8795651_3 719395506_10 719395506_8 719395506_7 719395506_3 719395506_4 50575480_2 330310753_1 330310753_2 330310713_1 330310713_3 8796076_1 -8796076_1 330310713_2 -8796216_2 -8796216_1 -397303084_2 -397303084_1 -397303085 -8796601 45270121_2 45270121_3 -8795503_3 8795503_3 330310753_1 330310753_2 330310713_1 330310713_3 8796076_1 8796076_3 -8796076_3 -8796076_1 330310713_2 -8796216_2 -8796216_1 397303086 397303083 50568411_1 44465157 589533490 589533498 468422742 590645027 468421268 -8796601 8796601"/>
    </vehicle>
    <vehicle id="737" depart="36.00" departPos="random" departSpeed="max">
        <route edges="45270121_2 45270121_3 330310753_1 59432574 397303085 397303084_1 -397303084_1 -397303085 38015401 330310713_1 330310713_3 330310713_2 -8796216_2 -8796216_1 -397303084_2 -397303084_1 -397303085 -8796601 45270121_2 45270121_3 330310753_1 59432574 397303085 397303084_1 397303084_2 397303086 397303083 50568411_1 44465157 589533490 589533498 468422742 590645027 468421268 374711603 777809605_2 468422740 686997726 589533491 752702309 125568090 -589533495_2 -589533495_1 -50568411_1 -397303083 -397303086 -397303084_2 -397303084_1 -397303085 374711603 777809605_2 468422740"/>
    </vehicle>
    <vehicle id="741" depart="37.00" departPos="random" departSpeed="max">
        <route edges="8797399_1 8797399_2 8797399_3 -589533495_2 -589533495_1 -50568411_1 -397303083 -397303086 -397303084_2 -397303084_1 -397303085 374711603 777809605_2 468422740 686997726 589533491 752702309 125568090 -589533495_2 -589533495_1 -50568411_1 -397303083 -397303086 -397303084_2 -397303084_1 -397303085 -8796601 -45270121_6 45270121_6 8796601 374711603 777809605_2 468422740 686997726 468422741 468421253 468421254 468421252 8797819_1 8797819_2 8797819_3 8797399_2 40802860 8797819_3 8797399_2 8797399_3 -589533495_2 -589533495_1 44465157 589533490 589533498 468422742 590645027 468421268 38015401 330310713_1 330310713_3 330310713_2 484878996_1 484878996_2 484878996_5 484878996_3 484878996_4 8797554_1 8797554_4 8797554_3"/>
    </vehicle>
    <vehicle id="814" depart="40.00" departPos="random" departSpeed="max">
        <route edges="28317285_2 28317285_3 719395506_1 719395506_9 719395506_5 719395506_11 719395506_10 719395506_8 719395506_7 -156723058 156723058 719395506_3 719395506_4 50575480_2 330310753_1 330310753_2 330310713_1 330310713_3 8796076_1 -8796076_1 -330310713_3 -330310713_1 330310713_1 330310713_3 330310713_2 -8796216_2 -8796216_1 397303086 397303083 50568411_1 589533495_1 -589533495_1 -50568411_1 -397303083 -397303086 -397303084_2 -397303084_1 -397303085 397303085 397303084_1 -397303084_1 -397303085 -8796601 45270121_2 45270121_3 330310753_1 330310753_2"/>
    </vehicle>
    <vehicle id="842" depart="42.00" departPos="random" departSpeed="max">
        <route edges="719395506_10 719395506_8 719395506_7 -156723058 8796353_3 -8796353_3 8796353_3 8795651_2 8795651_3 719395506_10 719395506_8 719395506_7 -156723058 -8796353_5 -8796353_7 -8796353_6 567066770 8796353_7 8796353_5 156723058 719395506_3 719395506_4 50575480_2 330310753_1 59432574 397303085 397303084_1 397303084_2 397303086 397303083 50568411_1 44465157 589533490 589533498 468422742 590645027 468421268 -8796601 45270121_2 45270121_3 330310753_1 330310753_2 330310713_1 330310713_3 330310713_2 484878996_1 484878996_2 484878996_5 484878996_3 484878996_4 -484878996_4"/>
    </vehicle>
    <vehicle id="1116" depart="55.00" departPos="random" departSpeed="max">
        <route edges="8796806_1 8796806_5 8796806_4 8796806_3 8795651_1 8795651_2 8795651_3 719395506_10 719395506_8 719395506_7 719395506_3 719395506_4 50575480_2 330310753_1 330310753_2 330310713_1 330310713_3 -330310713_3 330310713_3 330310713_2 -8796216_2 -8796216_1 -397303084_2 -397303084_1 -397303085 374711603 777809605_2 468422740 686997726 589533491 752702309 125568090 -589533495_2 -589533495_1 44465157 589533490 589533498 468422742 590645027 468421268 38015401 330310713_1 330310713_3 8796076_1 -8796076_1 8796076_1 8796076_3 8797131_9 -484878996_4 -484878996_3 -484878996_5 -484878996_2 -484878996_1 -8796216_2 -8796216_1 397303086 397303083 50568411_1 44465157 589533494 125568090"/>
    </vehicle>
    <vehicle id="1143" depart="57.00" departPos="random" departSpeed="max">
        <route edges="771992002 206857465_3 621527175_8 621527175_10 621527175_11 719026490_1 565167440 564768404_2 719395506_1 719395506_9 719395506_5 719395506_11 719395506_10 719395506_8 719395506_7 -156723058 -8796353_5 8796353_5 8796353_3 8795651_2 8795651_3 719395506_10 719395506_8 719395506_7 719395506_3 719395506_4 50575480_2 330310753_1 330310753_2 330310713_1 330310713_3 8796076_1 -8796076_1 330310713_2 -8796216_2 -8796216_1 -397303084_2 -397303084_1 -397303085 397303085 397303084_1 -397303084_1 -397303085 -8796601 45270121_2 -45270121_2 8796601 374711603 777809605_2"/>
    </vehicle>
    <vehicle id="1534" depart="76.00" departPos="random" departSpeed="max">
        <route edges="565167466 719395506_8 719395506_7 719395506_3 719395506_4 50575480_2 330310753_1 59432574 374711603 777809605_2 468422740 686997726 468422741 468421253 468421254 468421252 8797819_1 468421256_1 468421256_2 468421255 589533491 752702309 125568090 -589533495_2 -589533495_1 -50568411_1 -397303083 -397303086 8796216_1 8796216_2 -330310713_2 -330310713_3 330310713_3 330310713_2 -8796216_2 -8796216_1 397303086 397303083 50568411_1 44465157 589533490 589533498 468422742 590645027 468421268 374711603 777809605_2 468422740 686997726 468422741 468421253 468421254 468421252 8797819_1 8797819_2 8797819_3 8797399_2 8797399_3 -589533495_2 -589533495_1 -50568411_1 -397303083 -397303086 -397303084_2 -397303084_1 -397303085 -8796601 8796601 38015401 330310713_1 330310713_3 330310713_2 484878996_1 484878996_2 484878996_5 484878996_3 484878996_4 8797131_3 8797131_4 747449010_1 747449010_2 747449012"/>
    </vehicle>
    <vehicle id="1713" depart="85.00" departPos="random" departSpeed="max">
        <route edges="468421252 8797819_1 468421256_1 468421256_2 468421255 589533491 752702309 125568090 -589533495_2 -589533495_1 -50568411_1 -397303083 -397303086 -397303084_2 -397303084_1 -397303085 38015401 330310713_1 330310713_3 330310713_2 484878996_1 484878996_2 484878996_5 484878996_3 -484878996_3 -484878996_5 -484878996_2 -484878996_1 -8796216_2 -8796216_1 -397303084_2 -397303084_1 -397303085 -8796601 45270121_2 45270121_3 330310753_1 330310753_2 330310713_1 330310713_3 330310713_2 484878996_1 -484878996_1 -8796216_2 -8796216_1 -397303084_2 -397303084_1 -397303085 -8796601 45270121_2 45270121_3 330310753_1"/>
    </vehicle>
    <vehicle id="1726" depart="86.00" departPos="random" departSpeed="max">
        <route edges="8797130_4 8797130_5 719395506_5 719395506_11 719395506_10 719395506_8 719395506_7 719395506_3 719395506_4 50575480_2 -8795503_3 207634647 45270121_3 330310753_1 59432574 374711603 777809605_2 468422740 686997726 589533491 752702309 125568090 -589533495_2 -589533495_1 -50568411_1 -397303083 -397303086 -397303084_2 -397303084_1 -397303085 374711603 777809605_2 468422740 686997726 589533491 752702309 125568090 -589533495_2 -589533495_1 -50568411_1 -397303083 -397303086 -397303084_2 -397303084_1 -397303085 -8796601 45270121_2 -45270121_2 8796601 374711603 777809605_2 468422740 686997726 468422741 468421253 468421254 468421252 8797819_1 8797819_2 8797819_3 8797399_2 8797399_3 -589533495_2 -589533495_1 -50568411_1 -397303083 -397303086 8796216_1 8796216_2 -330310713_2 330310713_2"/>
    </vehicle>
    <vehicle id="1842" depart="92.00" departPos="random" departSpeed="max">
        <route edges="28317285_1 28317285_2 28317285_3 719395506_1 565167467 621527175_10 565167469_1 565167469_2 719395505_3 719026490_1 565167440 564768404_2 719395506_1 719395506_9 269095741 621527175_3 621527175_8 621527175_10 621527175_11 719026490_1 565167440 564768404_2 719395506_1 719395506_9 719395506_5 719395506_11 719395506_10 719395506_8 719395506_7 -156723058 -8796353_5 -8796353_7 8796353_7 8796353_5 156723058 719395506_3 719395506_4 50575480_2 330310753_1 59432574 374711603 777809605_2 468422740 686997726 468422741 468421253 468421254 468421252 8797819_1 468421256_1 468421256_2 468421255 589533491 752702309 125568090 -589533495_2 -589533495_1 -50568411_1 -397303083 -397303086 -397303084_2 -397303084_1 -397303085 -8796601 45270121_2 45270121_3 330310753_1 59432574 38015401 330310713_1 330310713_3 330310713_2 484878996_1 484878996_2 8797259_1 8797259_5 8797259_6 8797259_4 8797259_7 8797403_1 8797403_2 8797403_3"/>
    </vehicle>
    <vehicle id="1900" depart="95.00" departPos="random" departSpeed="max">
        <route edges="-190641518_2 -190641518_1 719026490_1 565167440 564768404_2 719395506_1 719395506_9 719395506_5 719395506_11 719395506_10 719395506_8 719395506_7 719395506_3 719395506_4 50575480_2 330310753_1 59432574 374711603 777809605_2 468422740 686997726 468422741 468421253 468421254 468421252 8797819_1 8797819_2 8797819_3 8797399_2 8797399_3 -589533495_2 -589533495_1 -50568411_1 -397303083 -397303086 -397303084_2 -397303084_1 -397303085 -8796601 8796601 38015401 330310713_1 330310713_3 330310713_2 484878996_1 484878996_2 484878996_5 484878996_3 484878996_4 8797554_1 8797554_4 8797554_3 -8797554_3 -8797554_4 -8797554_1 -484878996_4 -484878996_3 -484878996_5 -484878996_2 -484878996_1 484878996_1 -484878996_1 -8796216_2 -8796216_1 397303086 397303083 50568411_1 -50568411_1 -397303083 -397303086 8796216_1 8796216_2 484878996_1 484878996_2 8797259_1 8797259_5 8797259_6 45308484"/>
    </vehicle>
    <vehicle id="2022" depart="101.00" departPos="random" departSpeed="max">
        <route edges="780276542 8796806_5 8796806_4 8796806_3 8795651_1 8795651_2 8795651_3 719395506_10 719395506_8 719395506_7 719395506_3 719395506_4 50575480_2 330310753_1 59432574 374711603 777809605_2 468422740 686997726 468422741 468421253 468421254 468421252 8797819_1 468421256_1 468421256_2 468421255 589533491 752702309 125568090 -589533495_2 -589533495_1 44465157 589533494 125568090 -589533495_2 -589533495_1 -50568411_1 -397303083 -397303086 8796216_1 8796216_2 -330310713_2 -330310713_3 330310713_3 330310713_2 -8796216_2 -8796216_1 397303086 397303083 50568411_1 44465157 589533494 125568090 -589533495_2 -589533495_1 -50568411_1 -397303083 -397303086 8796216_1 8796216_2 -330310713_2 8796076_1 -8796076_1 8796076_1 8796076_3 8797131_9 -484878996_4"/>
    </vehicle>
    <vehicle id="2360" depart="118.00" departPos="random" departSpeed="max">
        <route edges="8796806_4 8796806_3 8795651_1 8795651_2 8795651_3 719395506_10 719395506_8 719395506_7 719395506_3 719395506_4 50575480_2 330310753_1 59432574 374711603 777809605_2 468422740 686997726 468422741 468421253 468421254 468421252 8797819_1 8797819_2 8797819_3 8797399_2 8797399_3 -589533495_2 -589533495_1 -50568411_1 -397303083 -397303086 -397303084_2 -397303084_1 -397303085 374711603 777809605_2 468422740 686997726 589533491 752702309 125568090 -589533495_2 -589533495_1 -50568411_1 -397303083 -397303086 8796216_1 8796216_2 484878996_1 -484878996_1 -8796216_2 -8796216_1 -397303084_2 -397303084_1 -397303085 -8796601 45270121_2 45270121_3 -8795503_3 8795503_3 330310753_1 330310753_2 330310713_1 330310713_3 330310713_2 484878996_1 484878996_2 484878996_5 484878996_3 484878996_4 8797131_3 8797131_4"/>
    </vehicle>
    <vehicle id="2384" depart="119.00" departPos="random" departSpeed="max">
        <route edges="719026490_1 565167440 564768404_2 719395506_1 719395506_9 719395506_5 719395506_11 719395506_10 719395506_8 719395506_7 -156723058 156723058 719395506_3 719395506_4 50575480_2 330310753_1 59432574 397303085 397303084_1 397303084_2 397303086 -397303086 -397303084_2 -397303084_1 -397303085 -8796601 -45270121_6 45270121_6 8796601 374711603 777809605_2 468422740 686997726 589533491 752702309 125568090 -589533495_2 -589533495_1 -50568411_1 -397303083 397303083 50568411_1 -50568411_1 -397303083 -397303086 8796216_1 8796216_2 484878996_1 -484878996_1"/>
    </vehicle>
    <vehicle id="2856" depart="142.00" departPos="random" departSpeed="max">
        <route edges="621527175_2 621527175_3 621527175_8 621527175_10 621527175_11 719026490_1 565167440 564768404_2 719395506_1 719395506_9 719395506_5 719395506_11 719395506_10 719395506_8 719395506_7 719395506_3 719395506_4 50575480_2 330310753_1 59432574 397303085 397303084_1 397303084_2 397303086 397303083 50568411_1 -50568411_1 -397303083 -397303086 8796216_1 8796216_2 484878996_1 -484878996_1 -8796216_2 -8796216_1 -397303084_2 -397303084_1 -397303085 374711603 777809605_2 468422740 686997726 468422741 468421253 468421254 468421252 8797819_1 8797819_2 8797819_3 8797399_2 8797399_3 -589533495_2 -589533495_1 44465157 589533490 589533498 468422742 590645027 468421268 397303085 397303084_1 397303084_2 397303086 -397303086 8796216_1 8796216_2 484878996_1 484878996_2 8797259_1 8797259_5 8797259_6"/>
    </vehicle>
    <vehicle id="3283" depart="164.00" departPos="random" departSpeed="max">
        <route edges="719395506_8 719395506_7 -156723058 8796353_3 8795651_2 8795651_3 8795651_4 621527175_9 621527175_2 621527175_3 621527175_8 621527175_10 621527175_11 719026490_1 565167440 564768404_2 719395506_1 719395506_9 719395506_5 719395506_11 719395506_10 719395506_8 719395506_7 719395506_3 719395506_4 50575480_2 330310753_1 59432574 374711603 777809605_2 468422740 686997726 589533491 752702309 125568090 -589533495_2 -589533495_1 44465157 589533490 589533498 468422742 590645027 468421268 397303085 397303084_1 397303084_2 397303086 397303083 50568411_1 44465157 589533494 125568090 -589533495_2 -589533495_1 -50568411_1 -397303083 -397303086 -397303084_2 -397303084_1 -397303085 -8796601 8796601 397303085 397303084_1 397303084_2 397303086 397303083 50568411_1 589533495_1 589533495_2"/>
    </vehicle>
    <vehicle id="4000" depart="200.00" departPos="random" departSpeed="max">
        <route edges="-397303085 38015401 330310713_1 330310713_3 330310713_2 484878996_1 484878996_2 -484878996_2 -484878996_1 -8796216_2 -8796216_1 -397303084_2 -397303084_1 -397303085 374711603 777809605_2 468422740 686997726 468422741 468421253 468421254 468421252 8797819_1 8797819_2 8797819_3 8797399_2 40802860 8797819_3 8797399_2 8797399_3 -589533495_2 -589533495_1 -50568411_1 -397303083 -397303086 8796216_1 8796216_2 -330310713_2 8796076_1 8796076_3 -8796076_3 -8796076_1 -330310713_3 330310713_3 330310713_2 484878996_1 484878996_2 484878996_5 484878996_3 484878996_4 8797554_1"/>
    </vehicle>
    <vehicle id="4174" depart="208.00" departPos="random" departSpeed="max">
        <route edges="590571550 8796806_1 8796806_5 8796806_4 8796806_3 8795651_1 8795651_2 8795651_3 719395506_10 719395506_8 719395506_7 719395506_3 206657080 435978968 719395506_7 719395506_3 719395506_4 50575480_2 330310753_1 59432574 397303085 397303084_1 397303084_2 397303086 -397303086 8796216_1 8796216_2 484878996_1 484878996_2 484878996_5 484878996_3 484878996_4 8797554_1 8797554_4 8797554_3 -8797554_3 -8797554_4 -8797554_1 -484878996_4 -484878996_3 -484878996_5 -484878996_2 -484878996_1 -8796216_2 -8796216_1 -397303084_2 -397303084_1 -397303085 374711603 777809605_2 468422740 686997726 468422741 468421253 468421254 468421252 8797819_1 468421256_1 468421256_2 468421255 589533491 752702309 125568090 -589533495_2 -589533495_1 -50568411_1 -397303083 -397303086 -397303084_2 -397303084_1 -397303085 -8796601 45270121_2 45270121_3 -8795503_3 8795503_3 330310753_1 59432574 374711603 777809605_2 468422740 686997726 468422741 468421253 468421254 468421252 8797819_1 8797819_2"/>
    </vehicle>
    <vehicle id="4845" depart="242.00" departPos="random" departSpeed="max">
        <route edges="8796353_6 8796353_7 8796353_5 8796353_3 8795651_2 8795651_3 8795651_4 621527175_9 8797131_1 8797131_2 8797131_6 8797131_5 8797131_9 -484878996_4 484878996_4 -484878996_4 -484878996_3 -484878996_5 -484878996_2 -484878996_1 -8796216_2 -8796216_1 397303086 397303083 50568411_1 -50568411_1 -397303083 -397303086 8796216_1 8796216_2 484878996_1 484878996_2 484878996_5 484878996_3 484878996_4 -484878996_4 -484878996_3 -484878996_5 -484878996_2 -484878996_1 -330310713_2 330310713_2 484878996_1 484878996_2 8797259_1"/>
    </vehicle>
    <vehicle id="4856" depart="242.00" departPos="random" departSpeed="max">
        <route edges="-330310713_3 330310713_3 330310713_2 484878996_1 484878996_2 484878996_5 484878996_3 484878996_4 8797554_1 8797554_4 -8797554_4 -8797554_1 -484878996_4 -484878996_3 -484878996_5 -484878996_2 -484878996_1 -8796216_2 -8796216_1 397303086 397303083 50568411_1 -50568411_1 -397303083 -397303086 -397303084_2 -397303084_1 -397303085 374711603 777809605_2 468422740 686997726 468422741 468421253 468421254 468421252 8797819_1 8797819_2 8797819_3 8797399_2 8797399_3 -589533495_2 -589533495_1 -50568411_1 -397303083 -397303086 8796216_1 8796216_2 484878996_1 484878996_2 -484878996_2 -484878996_1 -8796216_2 -8796216_1 397303086 397303083 50568411_1 44465157 589533490 589533498"/>
    </vehicle>
    <vehicle id="5006" depart="250.00" departPos="random" departSpeed="max">
        <route edges="719395506_4 50575480_2 330310753_1 59432574 397303085 397303084_1 397303084_2 397303086 397303083 50568411_1 -50568411_1 -397303083 -397303086 -397303084_2 -397303084_1 -397303085 38015401 330310713_1 330310713_3 -330310713_3 -330310713_1 330310713_1 330310713_3 330310713_2 -8796216_2 -8796216_1 -397303084_2 -397303084_1 -397303085 -8796601 45270121_2 45270121_3 -45270121_3 -45270121_2 8796601 397303085 397303084_1 397303084_2 397303086 397303083 50568411_1 44465157 589533490 589533498 468422742 590645027 468421268 38015401 330310713_1 -330310713_1"/>
    </vehicle>
    <vehicle id="5199" depart="259.00" departPos="random" departSpeed="max">
        <route edges="590571550 8796806_1 8796806_5 8796806_4 8796806_3 8795651_1 -8796353_3 -8796353_5 8796353_5 8796353_3 8795651_2 8795651_3 8795651_4 621527175_9 621527175_2 621527175_3 621527175_8 621527175_10 621527175_11 719026490_1 565167440 564768404_2 719395505_1 719395505_2 719395505_3 719026490_1 565167440 564768404_2 719395506_1 719395506_9 719395506_5 719395506_11 719395506_10 719395506_8 719395506_7 -156723058 -8796353_5 -8796353_7 -8796353_6 -8796353_2 8796353_2 8796353_6 8796353_7 8796353_5 156723058 719395506_3 719395506_4 50575480_2 330310753_1 59432574 374711603 777809605_2 468422740 686997726 468422741 468421253 468421254 468421252 8797819_1 8797819_2 8797819_3 8797399_2 8797399_3 -589533495_2 -589533495_1 -50568411_1 -397303083 -397303086 8796216_1 8796216_2 484878996_1 484878996_2 484878996_5 484878996_3 484878996_4 8797131_3 565167449"/>
    </vehicle>
    <vehicle id="5223" depart="261.00" departPos="random" departSpeed="max">
        <route edges="621527175_6 621527175_5 621527175_9 621527175_2 621527175_3 621527175_8 621527175_10 621527175_11 719026490_1 565167440 564768404_2 719395506_1 719395506_9 719395506_5 719395506_11 8795651_4 621527175_9 621527175_2 621527175_3 621527175_8 621527175_10 621527175_11 719026490_1 565167440 564768404_2 719395506_1 719395506_9 719395506_5 719395506_11 719395506_10 719395506_8 719395506_7 719395506_3 719395506_4 50575480_2 330310753_1 330310753_2 330310713_1 330310713_3 330310713_2 484878996_1 -484878996_1 -8796216_2 -8796216_1 -397303084_2 -397303084_1 -397303085 -8796601 45270121_2 45270121_3 -45270121_3 45270121_3 330310753_1 330310753_2 330310713_1 330310713_3 8796076_1 8796076_3 -8796076_3 -8796076_1 330310713_2 -8796216_2 -8796216_1 -397303084_2 -397303084_1 -397303085 397303085 397303084_1"/>
    </vehicle>
    <vehicle id="5269" depart="263.00" departPos="random" departSpeed="max">
        <route edges="468421268 38015401 330310713_1 330310713_3 330310713_2 -8796216_2 -8796216_1 -397303084_2 -397303084_1 -397303085 374711603 777809605_2 468422740 686997726 468422741 468421253 468421254 468421252 8797819_1 468421256_1 468421256_2 468421255 589533491 752702309 125568090 -589533495_2 -589533495_1 -50568411_1 -397303083 -397303086 -397303084_2 -397303084_1 -397303085 374711603 777809605_2 468422740 686997726 468422741 468421253 468421254 468421252 8797819_1 468421256_1 468421256_2 468421255 589533491 752702309 125568090 -589533495_2 -589533495_1 -50568411_1 -397303083 -397303086 -397303084_2 -397303084_1"/>
    </vehicle>
    <vehicle id="5287" depart="264.00" departPos="random" departSpeed="max">
        <route edges="206857465_3 621527175_8 621527175_10 621527175_11 719026490_1 565167440 564768404_2 719395506_1 719395506_9 719395506_5 719395506_11 719395506_10 719395506_8 719395506_7 719395506_3 719395506_4 50575480_2 330310753_1 59432574 374711603 777809605_2 468422740 686997726 468422741 468421253 468421254 468421252 8797819_1 8797819_2 8797819_3 8797399_2 8797399_3 -589533495_2 -589533495_1 -50568411_1 -397303083 397303083 50568411_1 44465157 589533490 589533498 468422742 590645027 468421268 38015401 330310713_1 330310713_3 8796076_1 8796076_3 8797131_9 -484878996_4 -484878996_3 -484878996_5 -484878996_2 -484878996_1 -8796216_2 -8796216_1 -397303084_2 -397303084_1 -397303085 374711603 777809605_2 468422740 686997726 468422741 468421253 468421254 468421252 8797819_1 468421256_1 468421256_2"/>
    </vehicle>
    <vehicle id="5305" depart="265.00" departPos="random" departSpeed="max">
        <route edges="-8796601 8796601 397303085 397303084_1 397303084_2 397303086 397303083 50568411_1 589533495_1 589533495_2 -589533495_2 -589533495_1 44465157 589533490 589533498 468422742 590645027 468421268 38015401 330310713_1 330310713_3 330310713_2 484878996_1 484878996_2 -484878996_2 -484878996_1 -330310713_2 330310713_2 484878996_1 484878996_2 484878996_5 484878996_3 -484878996_3 -484878996_5 -484878996_2"/>
    </vehicle>
    <vehicle id="5995" depart="299.00" departPos="random" departSpeed="max">
        <route edges="-397303084_1 -397303085 397303085 397303084_1 397303084_2 397303086 397303083 50568411_1 44465157 589533490 589533498 468422742 590645027 468421268 397303085 397303084_1 397303084_2 397303086 397303083 50568411_1 -50568411_1 -397303083 -397303086 8796216_1 8796216_2 -8796216_2 -8796216_1 -397303084_2 -397303084_1 -397303085 38015401 330310713_1 330310713_3 330310713_2 -8796216_2 -8796216_1 397303086 -397303086 -397303084_2 -397303084_1 -397303085 374711603 777809605_2 468422740 686997726 589533491 752702309"/>
    </vehicle>
    <vehicle id="6246" depart="312.00" departPos="random" departSpeed="max">
        <route edges="8796570_2 125568089_1 125568089_2 590571542_2 469146402 589533491 752702309 125568090 -589533495_2 -589533495_1 -50568411_1 -397303083 -397303086 8796216_1 8796216_2 484878996_1 484878996_2 484878996_5 484878996_3 484878996_4 8797554_1 8797554_4 8797554_3 -8797554_3 -8797554_4 -8797554_1 -484878996_4 -484878996_3 -484878996_5 -484878996_2 -484878996_1 -8796216_2 -8796216_1 -397303084_2 -397303084_1 -397303085 397303085 397303084_1 397303084_2 397303086 397303083 50568411_1 -50568411_1 -397303083 397303083 50568411_1 44465157 589533494 125568090 -589533495_2 -589533495_1 -50568411_1 -397303083 -397303086 -397303084_2 -397303084_1 -397303085 374711603 777809605_2 468422740 686997726 468422741 468421253 468421254 468421252 8797819_1 8797819_2 8797819_3 8797399_2 8797399_3 -589533495_2 -589533495_1 -50568411_1 -397303083 -397303086 -397303084_2 -397303084_1 -397303085 374711603 777809605_2 468422740 686997726 468422741 468421253 468421254 468421252 8797819_1 468421256_1 468421256_2"/>
    </vehicle>
    <vehicle id="6386" depart="319.00" departPos="random" departSpeed="max">
        <route edges="686997726 589533491 752702309 125568090 -589533495_2 -589533495_1 -50568411_1 -397303083 -397303086 -397303084_2 -397303084_1 -397303085 397303085 397303084_1 397303084_2 397303086 397303083 50568411_1 44465157 589533490 589533498 468422742 590645027 468421268 38015401 330310713_1 330310713_3 8796076_1 -8796076_1 330310713_2 -8796216_2 -8796216_1 397303086 397303083 50568411_1 44465157 589533494 125568090 -589533495_2 -589533495_1 589533495_1 -589533495_1 -50568411_1 -397303083 -397303086 8796216_1 -8796216_1"/>
    </vehicle>
    <vehicle id="6590" depart="329.00" departPos="random" departSpeed="max">
        <route edges="621527175_8 621527175_10 621527175_11 719026490_1 565167440 564768404_2 719395506_1 719395506_9 719395506_5 719395506_11 719395506_10 719395506_8 719395506_7 -156723058 8796353_3 8795651_2 8795651_3 8795651_4 621527175_9 621527175_2 621527175_3 621527175_8 621527175_10 621527175_11 719026490_1 565167440 564768404_2 719395506_1 719395506_9 719395506_5 719395506_11 719395506_10 719395506_8 719395506_7 719395506_3 719395506_4 50575480_2 330310753_1 330310753_2 330310713_1 330310713_3 8796076_1 -8796076_1 330310713_2 -8796216_2 -8796216_1 -397303084_2 -397303084_1 -397303085 -8796601 45270121_2 45270121_3 -8795503_3 8795503_3 330310753_1 330310753_2 330310713_1 330310713_3 330310713_2 484878996_1 484878996_2 484878996_5 484878996_3 484878996_4 8797131_3 565167449 772170796_3"/>
    </vehicle>
    <vehicle id="6705" depart="335.00" departPos="random" departSpeed="max">
        <route edges="8796353_7 8796353_5 156723058 719395506_3 206657080 435978968 719395506_7 -156723058 -8796353_5 -8796353_7 -8796353_6 567066770 8796353_7 8796353_5 156723058 719395506_3 719395506_4 50575480_2 330310753_1 330310753_2 330310713_1 330310713_3 -330310713_3 330310713_3 330310713_2 -8796216_2 -8796216_1 -397303084_2 -397303084_1 -397303085 374711603 777809605_2 468422740 686997726 589533491 752702309 125568090 -589533495_2 -589533495_1 -50568411_1 -397303083 -397303086 8796216_1 8796216_2 484878996_1 484878996_2 8797259_1 8797259_5"/>
    </vehicle>
    <vehicle id="7092" depart="354.00" departPos="random" departSpeed="max">
        <route edges="8796806_1 8796806_5 8796806_4 8796806_3 8795651_1 8795651_2 8795651_3 719395506_10 719395506_8 719395506_7 719395506_3 719395506_4 50575480_2 330310753_1 330310753_2 330310713_1 330310713_3 330310713_2 484878996_1 484878996_2 -484878996_2 -484878996_1 -8796216_2 -8796216_1 -397303084_2 -397303084_1 -397303085 374711603 777809605_2 468422740 686997726 468422741 468421253 468421254 468421252 8797819_1 8797819_2 8797819_3 8797399_2 8797399_3 -589533495_2 -589533495_1 -50568411_1 -397303083 -397303086 -397303084_2 -397303084_1 -397303085 -8796601 45270121_2 45270121_3 -8795503_3 8795503_3 -8795503_3 207634647 45270121_3 330310753_1 330310753_2 330310713_1 330310713_3 330310713_2 -8796216_2"/>
    </vehicle>
    <vehicle id="7328" depart="366.00" departPos="random" departSpeed="max">