<?xml version="1.0" encoding="UTF-8"?>
<!-- generated on 2022-01-15 16:07:27.198751 by randomTrips.py UNKNOWN
  options: -n sumo.net.xml -r sumo.rou.xml -b 0 -e 1000 -p 0.05 <doubleminus>binomial 20 <doubleminus>min-distance 500 <doubleminus>fringe-factor 0.5 <doubleminus>intermediate 5 <doubleminus>trip-attributes departSpeed="max" departPos="random" <doubleminus>random
-->
<routes xmlns:xsi="http://www.w3.org/2001/XMLSchema-instance" xsi:noNamespaceSchemaLocation="http://sumo.dlr.de/xsd/routes_file.xsd">
    <trip id="0" depart="0.00" from="778910162" to="589533495_2" via="-45270121_3 565158624_3 719395506_7 269095741 719395506_10"  departSpeed="max" departPos="random"/>
    <trip id="1" depart="0.00" from="-50568411_1" to="484878996_3" via="590571542_2 -8796076_3 724728513_2 621527175_10 181329875_2"  departSpeed="max" departPos="random"/>
    <trip id="2" depart="0.00" from="484878996_1" to="44465157" via="8797259_5 8797259_2 8797130_4 38015401 8797554_1"  departSpeed="max" departPos="random"/>
    <trip id="3" depart="0.00" from="330310753_2" to="181329875_2" via="724728511 8797259_7 -50568411_1 8795651_3 719395506_11"  departSpeed="max" departPos="random"/>
    <trip id="4" depart="0.00" from="125568089_2" to="-50575479" via="-8796216_1 181329875_2 468421256_2 361085970 589533495_1"  departSpeed="max" departPos="random"/>
    <trip id="5" depart="0.00" from="81125885" to="8796353_7" via="-50568411_1 747449010_1 8797131_5 8796570_2 8797403_1"  departSpeed="max" departPos="random"/>
    <trip id="6" depart="0.00" from="8796806_2" to="567066770" via="125568090 8796353_6 719395506_10 782417748_1 8796601"  departSpeed="max" departPos="random"/>
    <trip id="7" depart="0.00" from="8796806_1" to="206857465_3" via="778910124 565167472_2 -330310713_3 589533490 81125887_1"  departSpeed="max" departPos="random"/>
    <trip id="8" depart="0.00" from="206657080" to="-484878996_4" via="28317285_3 565167492 565167472_2 40802860 484878996_3"  departSpeed="max" departPos="random"/>
    <trip id="9" depart="0.00" from="774886806" to="8797131_1" via="50568411_1 -8796353_7 621527175_5 45330151_1 719395505_2"  departSpeed="max" departPos="random"/>
    <trip id="10" depart="0.00" from="8797090_2" to="565167469_1" via="589533498 8797554_3 8796076_1 -397303084_1 590645027"  departSpeed="max" departPos="random"/>
    <trip id="11" depart="0.00" from="-484878996_1" to="782417748_2" via="8797131_9 81125900_2 28317285_3 -484878996_1 -45270121_3"  departSpeed="max" departPos="random"/>
    <trip id="12" depart="0.00" from="8796806_3" to="125568089_2" via="719395506_5 747449010_2 468421275 206857465_1 621527175_6"  departSpeed="max" departPos="random"/>
    <trip id="13" depart="0.00" from="8795503_3" to="45270923_3" via="565167464 50572954 719395505_3 621527175_5 207634647"  departSpeed="max" departPos="random"/>
    <trip id="14" depart="0.00" from="589533490" to="589533491" via="45330151_1 719395506_10 484878996_2 565167445 -330310713_3"  departSpeed="max" departPos="random"/>
    <trip id="15" depart="0.00" from="397303084_2" to="8797515" via="469146407_2 565167471 565167471 397303084_1 8796353_6"  departSpeed="max" departPos="random"/>
    <trip id="16" depart="0.00" from="621527175_5" to="206857465_3" via="-484878996_5 8797259_3 8796806_5 719395506_1 8797554_1"  departSpeed="max" departPos="random"/>
    <trip id="17" depart="0.00" from="397353597" to="50572954" via="621527175_10 206857465_1 719395506_5 469146407_3 -45270121_6"  departSpeed="max" departPos="random"/>
    <trip id="18" depart="0.00" from="59432574" to="28317285_3" via="8796806_5 -397303084_1 8797131_3 397303086 8797090_2"  departSpeed="max" departPos="random"/>
    <trip id="19" depart="0.00" from="590571542_2" to="590571542_2" via="-397303084_2 44465157 8795651_1 8795651_1 468421255"  departSpeed="max" departPos="random"/>
    <trip id="20" depart="1.00" from="330310753_1" to="8797403_1" via="8796806_5 -8796601 469146402 719395506_5 565167449"  departSpeed="max" departPos="random"/>
    <trip id="21" depart="1.00" from="397353597" to="8796806_2" via="50575480_2 8797259_2 45270121_2 777809605_2 -397303085"  departSpeed="max" departPos="random"/>
    <trip id="22" depart="1.00" from="81125862" to="589533490" via="8797090_4 771992002 777809605_2 8795651_4 8795503_3"  departSpeed="max" departPos="random"/>
    <trip id="23" depart="1.00" from="772170796_3" to="50575480_2" via="190641518_1 484878996_5 468422740 -330310713_2 469146402"  departSpeed="max" departPos="random"/>
    <trip id="24" depart="1.00" from="468422741" to="8796076_1" via="81125887_3 -8797554_1 468421275 779660399_1 8795651_4"  departSpeed="max" departPos="random"/>
    <trip id="25" depart="1.00" from="8797554_4" to="747449015_2" via="8797131_1 40802860 468422742 468421255 81125900_2"  departSpeed="max" departPos="random"/>
    <trip id="26" depart="1.00" from="8797131_7" to="724728513_2" via="8797131_9 8797259_4 49723608_2 190641518_1 8797130_5"  departSpeed="max" departPos="random"/>
    <trip id="27" depart="1.00" from="45270121_2" to="484878996_3" via="40802860 38015401 207634647 772170796_3 719395506_3"  departSpeed="max" departPos="random"/>
    <trip id="28" depart="1.00" from="468421254" to="330310713_2" via="-8796601 8797554_4 621527175_2 -330310713_3 565167472_2"  departSpeed="max" departPos="random"/>
    <trip id="29" depart="1.00" from="747449010_2" to="719395506_4" via="565167469_1 8797399_2 -484878996_5 719395506_7 -45270121_2"  departSpeed="max" departPos="random"/>
    <trip id="30" depart="1.00" from="565167492" to="719395506_4" via="484878996_2 779660399_1 -8797554_4 8797131_9 589533498"  departSpeed="max" departPos="random"/>
    <trip id="31" depart="1.00" from="8795651_3" to="330310713_1" via="81125887_1 8796806_2 8797259_5 565167469_1 8795503_3"  departSpeed="max" departPos="random"/>
    <trip id="32" depart="1.00" from="772170796_3" to="81125887_1" via="8797130_4 8797130_5 719395505_2 8797130_5 -8796353_3"  departSpeed="max" departPos="random"/>
    <trip id="33" depart="1.00" from="778910162" to="-45270121_1" via="468421255 81125900_1 50572954 589533491 565167464"  departSpeed="max" departPos="random"/>
    <trip id="34" depart="1.00" from="468421253" to="-397303085" via="590571550 8797131_3 772170796_3 45270121_2 621527175_5"  departSpeed="max" departPos="random"/>
    <trip id="35" depart="1.00" from="125568090" to="565167449" via="8797399_2 50572941 -484878996_1 -8796353_6 125568089_1"  departSpeed="max" departPos="random"/>
    <trip id="36" depart="1.00" from="206857465_2" to="392360165_2" via="156723058 -8795503_3 50572945 468421252 719395506_9"  departSpeed="max" departPos="random"/>
    <trip id="37" depart="1.00" from="8797131_7" to="8797399_3" via="468422742 8797130_4 28317285_3 719395506_8 -50568411_1"  departSpeed="max" departPos="random"/>
    <trip id="38" depart="1.00" from="8797819_2" to="8797176" via="330310753_1 -45270121_6 330310753_1 8796570_2 565167466"  departSpeed="max" departPos="random"/>
    <trip id="39" depart="1.00" from="589533495_2" to="565167464" via="181329875_2 -397303084_2 125568089_2 8797259_5 8796601"  departSpeed="max" departPos="random"/>
    <trip id="40" depart="2.00" from="50568411_1" to="589533494" via="747449010_1 589533495_1 484878996_3 8796806_4 469146402"  departSpeed="max" departPos="random"/>
    <trip id="41" depart="2.00" from="469146402" to="621527175_3" via="-45270121_2 8797131_2 8797554_4 -589533495_2 590571542_2"  departSpeed="max" departPos="random"/>
    <trip id="42" depart="2.00" from="778910124" to="719395506_9" via="719395506_11 752702309 8796353_2 361085968_2 -50575479"  departSpeed="max" departPos="random"/>
    <trip id="43" depart="2.00" from="8796353_5" to="-45270121_1" via="49723608_1 8797259_6 81125900_2 621527175_8 -45270121_1"  departSpeed="max" departPos="random"/>
    <trip id="44" depart="2.00" from="747449010_2" to="-8796216_2" via="724728512 28317285_2 8797131_2 45330151_1 -45270121_1"  departSpeed="max" departPos="random"/>
    <trip id="45" depart="2.00" from="565158624_3" to="392360165_1" via="-8796353_6 330310713_3 -397303084_1 8797403_2 397303084_2"  departSpeed="max" departPos="random"/>
    <trip id="46" depart="2.00" from="8795651_3" to="585902833" via="469146402 8796076_1 621527175_6 565167445 590571550"  departSpeed="max" departPos="random"/>
    <trip id="47" depart="2.00" from="565158624_1" to="392360165_1" via="44465157 8795651_3 49723608_2 752702309 8797399_3"  departSpeed="max" departPos="random"/>
    <trip id="48" depart="2.00" from="8797259_5" to="621527175_5" via="-397303084_1 752702309 8797130_4 40802860 -330310713_2"  departSpeed="max" departPos="random"/>
    <trip id="49" depart="2.00" from="49723608_1" to="590831806" via="-397303085 779660399_1 81125887_3 125568090 -8796601"  departSpeed="max" departPos="random"/>
    <trip id="50" depart="2.00" from="565167492" to="320594241_2" via="8797554_4 40802860 565167472_2 8795651_3 -8796353_6"  departSpeed="max" departPos="random"/>
    <trip id="51" depart="2.00" from="8796601" to="590571542_2" via="8797131_1 724728513_1 8796076_3 565167492 8796806_4"  departSpeed="max" departPos="random"/>
    <trip id="52" depart="2.00" from="397303085" to="181329875_2" via="8797403_1 468422740 -589533495_1 565158624_3 719395506_1"  departSpeed="max" departPos="random"/>
    <trip id="53" depart="2.00" from="724728513_1" to="-397303084_2" via="8797259_5 468421255 719395506_4 -397303084_2 719395506_4"  departSpeed="max" departPos="random"/>
    <trip id="54" depart="2.00" from="590645027" to="621527175_2" via="565158624_1 590645027 8796353_7 269095741 621527175_3"  departSpeed="max" departPos="random"/>
    <trip id="55" depart="2.00" from="8797554_1" to="724728513_1" via="468421256_2 -8797554_1 719395505_3 125568089_1 621527175_5"  departSpeed="max" departPos="random"/>
    <trip id="56" depart="2.00" from="-8795503_3" to="8796353_3" via="621527175_1 -8796353_6 565158624_3 38015401 621527175_8"  departSpeed="max" departPos="random"/>
    <trip id="57" depart="2.00" from="772170796_2" to="484879000" via="397303086 181329875_2 468421267 777809605_2 125568089_1"  departSpeed="max" departPos="random"/>
    <trip id="58" depart="2.00" from="50568360" to="724728512" via="8797403_1 -330310713_3 564768404_2 621527175_4 771992002"  departSpeed="max" departPos="random"/>
    <trip id="59" depart="2.00" from="719395505_3" to="8796076_3" via="8796570_1 621527175_5 752702309 8796602_1 468421275"  departSpeed="max" departPos="random"/>
    <trip id="60" depart="3.00" from="778910162" to="50568357" via="330310753_1 8797554_3 81125862 747449012 8797819_3"  departSpeed="max" departPos="random"/>
    <trip id="61" depart="3.00" from="747449010_1" to="565158630" via="484878996_3 484879000 49723608_1 468421254 484878996_4"  departSpeed="max" departPos="random"/>
    <trip id="62" depart="3.00" from="719395506_8" to="190641518_2" via="468421253 565158624_3 8797259_5 719395506_9 330310713_2"  departSpeed="max" departPos="random"/>
    <trip id="63" depart="3.00" from="45270121_6" to="565158624_1" via="-45270121_6 81125887_2 8797819_3 565167466 565167466"  departSpeed="max" departPos="random"/>
    <trip id="64" depart="3.00" from="8796806_2" to="565167469_1" via="44465157 719395506_9 747449010_2 621527175_6 361085968_2"  departSpeed="max" departPos="random"/>
    <trip id="65" depart="3.00" from="156723058" to="468421253" via="125568084 719395506_3 567066770 565158624_3 719395506_11"  departSpeed="max" departPos="random"/>
    <trip id="66" depart="3.00" from="780276540" to="468422741" via="719395506_7 621527175_5 621527175_2 565158624_1 -330310713_1"  departSpeed="max" departPos="random"/>
    <trip id="67" depart="3.00" from="81125867_5" to="719395506_3" via="81125900_2 8797259_7 778910124 -45270121_3 484878996_3"  departSpeed="max" departPos="random"/>
    <trip id="68" depart="3.00" from="468421275" to="-8795503_3" via="8797554_4 8795651_3 8797131_1 8797259_1 724728511"  departSpeed="max" departPos="random"/>
    <trip id="69" depart="3.00" from="589533490" to="-8797554_1" via="565167464 8796353_3 8796601 -45270121_2 484878996_1"  departSpeed="max" departPos="random"/>
    <trip id="70" depart="3.00" from="752702309" to="49723608_1" via="8797819_2 8796076_3 752702309 8797131_3 8797259_4"  departSpeed="max" departPos="random"/>
    <trip id="71" depart="3.00" from="8797131_5" to="468421256_1" via="8797131_4 8797819_1 125568088_1 8796076_3 719395506_11"  departSpeed="max" departPos="random"/>
    <trip id="72" depart="3.00" from="567066770" to="207634647" via="777809605_2 8797554_3 -8796216_2 190641518_1 621527175_6"  departSpeed="max" departPos="random"/>
    <trip id="73" depart="3.00" from="397303086" to="8797131_1" via="59432574 -484878996_1 468421252 8796076_1 719395506_5"  departSpeed="max" departPos="random"/>
    <trip id="74" depart="3.00" from="-397303084_1" to="81125887_1" via="8797403_1 -8796353_5 28317285_2 8796806_5 -330310713_1"  departSpeed="max" departPos="random"/>
    <trip id="75" depart="3.00" from="38015401" to="8797090_4" via="621527175_6 565167471 397303086 125568084 8797259_1"  departSpeed="max" departPos="random"/>
    <trip id="76" depart="3.00" from="565158624_3" to="8797090_3" via="8796806_2 81125900_1 -8796353_5 8795503_3 747449010_1"  departSpeed="max" departPos="random"/>
    <trip id="77" depart="3.00" from="621527175_9" to="8797399_3" via="8796353_2 8796353_2 8796806_4 8797131_5 468421252"  departSpeed="max" departPos="random"/>
    <trip id="78" depart="3.00" from="565167494_1" to="206857465_2" via="468421255 747449010_2 8795651_3 565167472_2 621527175_2"  departSpeed="max" departPos="random"/>
    <trip id="79" depart="3.00" from="8795503_3" to="585902833" via="468421255 -330310713_2 -8796216_2 724728513_1 484878996_1"  departSpeed="max" departPos="random"/>
    <trip id="80" depart="4.00" from="8797399_1" to="747449012" via="8796353_2 125568090 81125887_2 589533498 565167464"  departSpeed="max" departPos="random"/>
    <trip id="81" depart="4.00" from="8797399_3" to="565167454_2" via="181329875_2 8796353_2 8796353_3 45270121_2 468421253"  departSpeed="max" departPos="random"/>
    <trip id="82" depart="4.00" from="719395506_4" to="484878996_1" via="206657080 397303084_1 719395506_9 565167440 724728511"  departSpeed="max" departPos="random"/>
    <trip id="83" depart="4.00" from="469146402" to="772170796_3" via="621527175_8 49723608_2 330310713_2 469146407_2 -8797554_4"  departSpeed="max" departPos="random"/>
    <trip id="84" depart="4.00" from="435978968" to="8797259_5" via="206857465_3 771992002 8795651_4 468421267 468421268"  departSpeed="max" departPos="random"/>
    <trip id="85" depart="4.00" from="-8795503_3" to="-156723058" via="-8796353_7 -8796353_3 719395506_11 8797259_2 -8796353_3"  departSpeed="max" departPos="random"/>
    <trip id="86" depart="4.00" from="8797131_3" to="590831806" via="81125900_2 -8796353_3 8796806_3 269095741 8796353_2"  departSpeed="max" departPos="random"/>
    <trip id="87" depart="4.00" from="-330310713_2" to="772170796_3" via="-45270121_3 469146407_3 621527175_11 8796806_2 8797131_4"  departSpeed="max" departPos="random"/>
    <trip id="88" depart="4.00" from="772170796_2" to="81125887_1" via="-8796076_3 719395506_7 468421267 719395506_9 8797819_3"  departSpeed="max" departPos="random"/>
    <trip id="89" depart="4.00" from="-484878996_4" to="772170796_3" via="320594241_2 8797131_2 747449010_2 621527175_9 8796806_5"  departSpeed="max" departPos="random"/>
    <trip id="90" depart="4.00" from="565167466" to="-8796076_1" via="8796806_5 752702309 8796806_5 361085968_2 206857465_1"  departSpeed="max" departPos="random"/>
    <trip id="91" depart="4.00" from="589533491" to="-484878996_4" via="8796076_3 -50575479 8797259_2 -484878996_4 8797259_1"  departSpeed="max" departPos="random"/>
    <trip id="92" depart="4.00" from="-45270121_1" to="719395506_8" via="589533490 45270121_2 8795651_1 719395506_9 468421268"  departSpeed="max" departPos="random"/>
    <trip id="93" depart="4.00" from="780276542" to="397303084_2" via="-8797554_1 468421252 -484878996_2 565167445 81125867_1"  departSpeed="max" departPos="random"/>
    <trip id="94" depart="4.00" from="590571542_2" to="156723058" via="330310753_2 -484878996_1 484878996_4 8795651_2 -8796216_1"  departSpeed="max" departPos="random"/>
    <trip id="95" depart="4.00" from="484879000" to="125568090" via="724728513_1 156723058 -330310713_1 125568084 8796806_1"  departSpeed="max" departPos="random"/>
    <trip id="96" depart="4.00" from="782417748_2" to="8796216_2" via="50572941 -589533495_2 8797131_3 589533495_2 8797131_3"  departSpeed="max" departPos="random"/>
    <trip id="97" depart="4.00" from="565167445" to="50572941" via="8796570_2 45270923_2 8797131_9 -50568411_1 -8796353_7"  departSpeed="max" departPos="random"/>
    <trip id="98" depart="4.00" from="565167469_1" to="-330310713_1" via="38015401 8797090_3 8795651_1 -45270121_1 397303085"  departSpeed="max" departPos="random"/>
    <trip id="99" depart="4.00" from="8797131_9" to="-8797554_4" via="45270121_2 -330310713_2 778910124 38015401 -397303085"  departSpeed="max" departPos="random"/>
    <trip id="100" depart="5.00" from="724728513_1" to="81125887_3" via="468421256_2 8795651_2 38015401 -397303084_1 484878996_4"  departSpeed="max" departPos="random"/>
    <trip id="101" depart="5.00" from="8797131_7" to="330310713_1" via="719395506_11 -156723058 -8796216_2 565167471 565167445"  departSpeed="max" departPos="random"/>
    <trip id="102" depart="5.00" from="50575480_2" to="-397303085" via="8797819_1 392360165_1 397303084_2 8797259_1 -8797554_1"  departSpeed="max" departPos="random"/>
    <trip id="103" depart="5.00" from="8796353_7" to="190641518_2" via="206857465_2 -8796353_3 719395506_5 81125887_3 8797259_5"  departSpeed="max" departPos="random"/>
    <trip id="104" depart="5.00" from="782417748_1" to="484878996_5" via="8796353_3 590571550 -50575479 125568089_2 565158624_1"  departSpeed="max" departPos="random"/>
    <trip id="105" depart="5.00" from="8795651_2" to="590571550" via="621527175_10 8796570_2 8796602_1 719395505_2 719395505_3"  departSpeed="max" departPos="random"/>
    <trip id="106" depart="5.00" from="397353597" to="-589533495_1" via="8797403_2 719395506_11 468421256_1 -8796353_3 8796806_3"  departSpeed="max" departPos="random"/>
    <trip id="107" depart="5.00" from="747449012" to="771992002" via="125568089_1 468422742 44465157 8797131_7 621527175_9"  departSpeed="max" departPos="random"/>
    <trip id="108" depart="5.00" from="778609965" to="772170796_2" via="206857465_1 330310753_2 621527175_2 468421275 8797131_4"  departSpeed="max" departPos="random"/>
    <trip id="109" depart="5.00" from="8797259_1" to="780276549" via="621527175_3 -190641518_1 468421256_2 -484878996_5 397303084_1"  departSpeed="max" departPos="random"/>
    <trip id="110" depart="5.00" from="724728513_2" to="-8796601" via="484878996_1 8797259_3 -8796353_7 28317285_3 -397303083"  departSpeed="max" departPos="random"/>
    <trip id="111" depart="5.00" from="-8796601" to="621527175_9" via="125568089_1 8797131_7 719395505_2 49723608_1 621527175_10"  departSpeed="max" departPos="random"/>
    <trip id="112" depart="5.00" from="81125900_1" to="8796602_2" via="-330310713_2 8796806_3 -8796076_1 81125867_1 269095741"  departSpeed="max" departPos="random"/>
    <trip id="113" depart="5.00" from="469146402" to="8796353_3" via="8796216_1 8795651_4 8797819_3 469146407_3 -397303084_1"  departSpeed="max" departPos="random"/>
    <trip id="114" depart="5.00" from="565167445" to="719395505_3" via="320594241_2 621527175_4 565158624_3 8797259_5 392360165_1"  departSpeed="max" departPos="random"/>
    <trip id="115" depart="5.00" from="8797131_2" to="565167492" via="8796806_5 564768404_2 44465157 8795651_3 -8796601"  departSpeed="max" departPos="random"/>
    <trip id="116" depart="5.00" from="-397303084_2" to="-397303084_2" via="125568084 719395506_7 -8796216_2 -8796353_6 468421254"  departSpeed="max" departPos="random"/>
    <trip id="117" depart="5.00" from="8797131_4" to="8797131_6" via="621527175_5 8795651_1 50572941 779660399_1 8797554_4"  departSpeed="max" departPos="random"/>
    <trip id="118" depart="5.00" from="-8796353_3" to="49723608_1" via="-8796353_7 8797403_2 -484878996_5 565167449 8796076_1"  departSpeed="max" departPos="random"/>
    <trip id="119" depart="5.00" from="589533495_1" to="-190641518_1" via="565158624_3 8797399_3 8796806_1 8796806_1 8797259_4"  departSpeed="max" departPos="random"/>
    <trip id="120" depart="6.00" from="565167473" to="-397303084_2" via="8796806_3 -45270121_6 782417748_2 621527175_3 125568089_1"  departSpeed="max" departPos="random"/>
    <trip id="121" depart="6.00" from="780276539" to="125568090" via="81125887_2 45270121_3 -8796216_2 8796806_1 8797399_3"  departSpeed="max" departPos="random"/>
    <trip id="122" depart="6.00" from="782417746" to="50568411_1" via="125568089_1 621527175_1 8795503_3 156723058 468422741"  departSpeed="max" departPos="random"/>
    <trip id="123" depart="6.00" from="-397303084_1" to="-8796076_1" via="565167449 8797259_1 -8796353_7 125568089_1 468421267"  departSpeed="max" departPos="random"/>
    <trip id="124" depart="6.00" from="125568090" to="780276544" via="567066770 8797259_1 621527175_10 50575480_2 565167467"  departSpeed="max" departPos="random"/>
    <trip id="125" depart="6.00" from="771992003" to="-8796216_2" via="565167471 -484878996_1 8797131_6 565158624_3 484878996_3"  departSpeed="max" departPos="random"/>
    <trip id="126" depart="6.00" from="190641518_1" to="719395505_1" via="190641518_1 -8796216_2 207634647 -8796353_5 125568084"  departSpeed="max" departPos="random"/>
    <trip id="127" depart="6.00" from="435978968" to="565167467" via="590571550 81125900_2 -50568411_1 81125862 752702309"  departSpeed="max" departPos="random"/>
    <trip id="128" depart="6.00" from="8795651_3" to="719395505_1" via="28317285_2 -330310713_1 8796076_3 206657080 50575480_2"  departSpeed="max" departPos="random"/>
    <trip id="129" depart="6.00" from="8796216_2" to="565167454_2" via="778910124 8795651_4 779660399_1 8797259_4 -484878996_2"  departSpeed="max" departPos="random"/>
    <trip id="130" depart="6.00" from="38015401" to="-45270121_6" via="8797819_2 8796076_3 589533495_1 50572945 8797131_5"  departSpeed="max" departPos="random"/>
    <trip id="131" depart="6.00" from="8796353_5" to="567066773" via="49723608_2 719395506_11 719395506_1 8797131_5 724728511"  departSpeed="max" departPos="random"/>
    <trip id="132" depart="6.00" from="45270923_2" to="8797259_4" via="621527175_3 81125867_1 8797259_2 8797399_3 8797131_2"  departSpeed="max" departPos="random"/>
    <trip id="133" depart="6.00" from="621527175_1" to="719395505_2" via="8797131_4 125568088_1 59432574 -484878996_1 719395506_5"  departSpeed="max" departPos="random"/>
    <trip id="134" depart="6.00" from="621527175_8" to="567066773" via="782417748_2 565167440 330310753_2 397303085 8797131_2"  departSpeed="max" departPos="random"/>
    <trip id="135" depart="6.00" from="8796570_2" to="468421256_2" via="468421268 8797259_1 621527175_11 719395505_2 719395506_7"  departSpeed="max" departPos="random"/>
    <trip id="136" depart="6.00" from="589533495_1" to="8796216_1" via="468421256_2 397303083 8797259_6 361085970 -45270121_1"  departSpeed="max" departPos="random"/>
    <trip id="137" depart="6.00" from="719395506_7" to="8797131_9" via="-8795503_3 -397303086 -330310713_1 468421252 8795651_2"  departSpeed="max" departPos="random"/>
    <trip id="138" depart="6.00" from="207634647" to="778910124" via="468422740 81125887_1 -8796216_1 8797399_3 8796216_2"  departSpeed="max" departPos="random"/>
    <trip id="139" depart="6.00" from="621527175_1" to="8797554_3" via="320594241_2 8796806_4 8796353_5 724728512 565167471"  departSpeed="max" departPos="random"/>
    <trip id="140" depart="7.00" from="-397303086" to="772170796_3" via="8797131_2 330310753_2 8797819_3 8797131_7 181329875_2"  departSpeed="max" departPos="random"/>
    <trip id="141" depart="7.00" from="-45270121_2" to="190641518_1" via="8796353_5 589533495_1 156723058 -484878996_1 397303084_1"  departSpeed="max" departPos="random"/>
    <trip id="142" depart="7.00" from="565158624_1" to="760507889" via="269095741 -45270121_1 590645027 621527175_9 -45270121_6"  departSpeed="max" departPos="random"/>
    <trip id="143" depart="7.00" from="-8796353_5" to="8797131_3" via="724728513_1 330310713_1 320594241_2 621527175_3 -156723058"  departSpeed="max" departPos="random"/>
    <trip id="144" depart="7.00" from="8797131_5" to="45270121_2" via="468422742 -8797554_1 621527175_2 49723608_1 772170796_2"  departSpeed="max" departPos="random"/>
    <trip id="145" depart="7.00" from="361085970" to="565167469_2" via="8797259_1 8796353_3 565158624_1 28317285_2 361085968_2"  departSpeed="max" departPos="random"/>
    <trip id="146" depart="7.00" from="8795651_4" to="8795651_3" via="8797090_4 719395506_1 -330310713_2 206657080 361085970"  departSpeed="max" departPos="random"/>
    <trip id="147" depart="7.00" from="-397303084_1" to="468421256_2" via="719395506_8 782417748_1 782417748_2 81125887_1 468422740"  departSpeed="max" departPos="random"/>
    <trip id="148" depart="7.00" from="468421252" to="8796353_6" via="484878996_3 8797090_3 590645027 320594241_2 8797130_4"  departSpeed="max" departPos="random"/>
    <trip id="149" depart="7.00" from="719395506_10" to="8796353_6" via="8796076_3 181329875_2 8796216_2 -8795503_5 621527175_6"  departSpeed="max" departPos="random"/>
    <trip id="150" depart="7.00" from="-8795503_5" to="8796216_1" via="565158624_3 8796353_3 565167466 747449010_2 565167449"  departSpeed="max" departPos="random"/>
    <trip id="151" depart="7.00" from="565167487" to="621527175_5" via="50572941 8797259_2 484878996_4 468421252 361085970"  departSpeed="max" departPos="random"/>
    <trip id="152" depart="7.00" from="747449010_1" to="125568090" via="-484878996_2 8796570_2 719395506_10 469146402 -589533495_1"  departSpeed="max" departPos="random"/>
    <trip id="153" depart="7.00" from="469146407_3" to="484878996_3" via="49723608_1 397303083 565167464 468421253 621527175_6"  departSpeed="max" departPos="random"/>
    <trip id="154" depart="7.00" from="8796353_2" to="771992002" via="81125867_1 -484878996_4 8797554_4 81125887_3 719395506_9"  departSpeed="max" departPos="random"/>
    <trip id="155" depart="7.00" from="81125900_1" to="50568357" via="8797554_4 589533495_1 50572954 589533491 468421254"  departSpeed="max" departPos="random"/>
    <trip id="156" depart="7.00" from="206857465_3" to="589533495_2" via="-156723058 40802860 8796076_3 8796353_2 125568090"  departSpeed="max" departPos="random"/>
    <trip id="157" depart="7.00" from="780276557" to="8796076_1" via="-156723058 -484878996_3 8797403_2 8797259_4 8797131_6"  departSpeed="max" departPos="random"/>
    <trip id="158" depart="7.00" from="468421268" to="374711603" via="156723058 -397303086 686997726 8796806_3 686997726"  departSpeed="max" departPos="random"/>
    <trip id="159" depart="7.00" from="-156723058" to="-50568411_1" via="621527175_3 8796353_5 8797554_3 45330151_1 45270121_2"  departSpeed="max" departPos="random"/>
    <trip id="160" depart="8.00" from="778609965" to="719395506_3" via="484878996_4 565167472_2 621527175_5 719395505_3 50575480_2"  departSpeed="max" departPos="random"/>
    <trip id="161" depart="8.00" from="565167469_1" to="621527175_8" via="-8797554_1 590645027 589533490 435978968 8797259_5"  departSpeed="max" departPos="random"/>
    <trip id="162" depart="8.00" from="392360165_1" to="206857465_3" via="-484878996_4 724728511 468421255 564768404_2 8796353_5"  departSpeed="max" departPos="random"/>
    <trip id="163" depart="8.00" from="206657080" to="207634647" via="621527175_11 50575480_2 565167469_1 397303083 -8795503_3"  departSpeed="max" departPos="random"/>
    <trip id="164" depart="8.00" from="8796602_1" to="779660399_1" via="-190641518_1 38015401 8796353_3 -8796076_1 81125887_1"  departSpeed="max" departPos="random"/>
    <trip id="165" depart="8.00" from="779660399_1" to="565167492" via="686997726 771992002 8796806_3 468421267 50575480_2"  departSpeed="max" departPos="random"/>
    <trip id="166" depart="8.00" from="-45270121_6" to="565167469_2" via="724728511 -8797554_1 330310713_1 28317285_2 8795503_3"  departSpeed="max" departPos="random"/>
    <trip id="167" depart="8.00" from="8797090_2" to="8796353_5" via="8797259_3 724728511 320594241_2 392360165_1 125568089_1"  departSpeed="max" departPos="random"/>
    <trip id="168" depart="8.00" from="8797259_7" to="38130522" via="374711603 -8796216_1 747449010_1 8796216_1 8796806_3"  departSpeed="max" departPos="random"/>
    <trip id="169" depart="8.00" from="778910124" to="8796570_1" via="125568089_2 565167492 686997726 719395506_3 8796216_1"  departSpeed="max" departPos="random"/>
    <trip id="170" depart="8.00" from="747449010_2" to="125568084" via="8797554_4 -8796353_3 59432574 565167449 8797819_2"  departSpeed="max" departPos="random"/>
    <trip id="171" depart="8.00" from="468421274" to="81125862" via="468421253 -484878996_1 484878996_5 50572945 49723608_1"  departSpeed="max" departPos="random"/>
    <trip id="172" depart="8.00" from="8797259_5" to="8795651_4" via="747449012 484878996_3 -330310713_3 269095741 468422742"  departSpeed="max" departPos="random"/>
    <trip id="173" depart="8.00" from="50568360" to="-397303083" via="-8796353_7 50572941 621527175_8 621527175_10 8795651_2"  departSpeed="max" departPos="random"/>
    <trip id="174" depart="8.00" from="779698676" to="621527175_1" via="8795651_3 206657080 724728511 589533498 -8796076_3"  departSpeed="max" departPos="random"/>
    <trip id="175" depart="8.00" from="719395505_2" to="45270121_3" via="771992002 772170796_2 81125867_1 468422742 320594241_2"  departSpeed="max" departPos="random"/>