<?xml version="1.0" encoding="UTF-8"?>

<!-- generated on 2022-01-15 12:11:36 by Eclipse SUMO duarouter Version 1.11.0
<configuration xmlns:xsi="http://www.w3.org/2001/XMLSchema-instance" xsi:noNamespaceSchemaLocation="http://sumo.dlr.de/xsd/duarouterConfiguration.xsd">

    <input>
        <net-file value="sumo.net.xml"/>
        <route-files value="trips.trips.xml"/>
    </input>

    <output>
        <output-file value="sumo.rou.xml"/>
        <alternatives-output value="sumo.rou.alt.xml"/>
    </output>

    <time>
        <begin value="0"/>
        <end value="20000"/>
    </time>

    <report>
        <no-warnings value="true"/>
        <ignore-errors value="true"/>
        <no-step-log value="true"/>
    </report>

</configuration>
-->

<routes xmlns:xsi="http://www.w3.org/2001/XMLSchema-instance" xsi:noNamespaceSchemaLocation="http://sumo.dlr.de/xsd/routes_file.xsd">
    <vehicle id="468" depart="31.00" departLane="best" departPos="random" departSpeed="max">
        <route edges="-45270121_2 8796601 397303085 397303084_1 397303084_2 397303086 397303083 50568411_1 589533495_1 589533495_2 -589533495_2 -589533495_1 -50568411_1 -397303083 -397303086 -397303084_2 -397303084_1 -397303085 397303085 397303084_1 397303084_2 8796216_1 8796216_2 484878996_1 484878996_2 484878996_5 484878996_3 484878996_4 -484878996_4 484878996_4 8797554_1 8797554_4 -8797554_4 -8797554_1 -484878996_4 -484878996_3 -484878996_5 -484878996_2 -484878996_1 -330310713_2 8796076_1 8796076_3 8797131_9 8797131_3 8797131_4 747449010_1 747449010_2"/>
    </vehicle>
    <vehicle id="521" depart="34.00" departLane="best" departPos="random" departSpeed="max">
        <route edges="719395505_1 719395505_2 719395505_3 719026490_1 565167440 564768404_2 719395506_1 719395506_9 719395506_5 719395506_11 719395506_10 719395506_8 719395506_7 -156723058 -8796353_5 -8796353_7 -8796353_6 8796353_6 8796353_7 8796353_5 156723058 719395506_3 719395506_4 50575480_2 330310753_1 59432574 397303085 397303084_1 397303084_2 397303086 397303083 50568411_1 44465157 589533490 589533498 468422742 590645027 468421268 397303085 397303084_1 -397303084_1 -397303085 374711603 777809605_2 468422740 686997726 468422741 468421253 468421254 468421252 8797819_1 8797819_2 8797819_3"/>
    </vehicle>
    <vehicle id="612" depart="40.00" departLane="best" departPos="random" departSpeed="max">
        <route edges="206857465_3 621527175_8 621527175_10 621527175_11 719026490_1 565167440 564768404_2 719395506_1 719395506_9 719395506_5 719395506_11 719395506_10 719395506_8 719395506_7 719395506_3 719395506_4 50575480_2 330310753_1 330310753_2 330310713_1 330310713_3 -330310713_3 330310713_3 330310713_2 484878996_1 484878996_2 484878996_5 484878996_3 484878996_4 8797554_1 8797554_4 8797554_3 -8797554_3 -8797554_4 -8797554_1 -484878996_4 -484878996_3 -484878996_5 -484878996_2 -484878996_1 -8796216_2 -8796216_1 -397303084_2 -397303084_1 -397303085 374711603 777809605_2 468422740 686997726 468422741 468421253 468421254 468421252 8797819_1 468421256_1 468421256_2 468421255 589533491 752702309 125568090 -589533495_2 -589533495_1 -50568411_1 -397303083 -397303086 -397303084_2 -397303084_1 -397303085 -8796601 45270121_2 45270121_3 -8795503_3 -8795503_5 8795503_5 8795503_3 330310753_1 59432574 374711603 777809605_2 468422740 686997726 589533491 752702309 125568090 -589533495_2 -589533495_1 -50568411_1 -397303083 -397303086 8796216_1 8796216_2 484878996_1 484878996_2 484878996_5 484878996_3 -484878996_3"/>
    </vehicle>
    <vehicle id="1565" depart="104.00" departLane="best" departPos="random" departSpeed="max">
        <route edges="-397303084_2 -397303084_1 -397303085 -8796601 45270121_2 45270121_3 -45270121_3 -45270121_2 8796601 397303085 397303084_1 -397303084_1 -397303085 -8796601 8796601 -8796601 45270121_2 45270121_3 330310753_1 330310753_2 330310713_1 330310713_3 330310713_2 -8796216_2 -8796216_1 -397303084_2 -397303084_1 -397303085 374711603 777809605_2 468422740 686997726 468422741 468421253 468421254 468421252 8797819_1 468421256_1 468421256_2 468421255 589533491 752702309 125568090 -589533495_2 -589533495_1 -50568411_1 -397303083 468421275"/>
    </vehicle>
    <vehicle id="1638" depart="109.00" departLane="best" departPos="random" departSpeed="max">
        <route edges="8796353_5 156723058 719395506_3 719395506_4 50575480_2 330310753_1 59432574 397303085 397303084_1 397303084_2 397303086 397303083 50568411_1 44465157 589533490 589533498 468422742 590645027 468421268 -8796601 45270121_2 45270121_3 -45270121_3 -45270121_2 8796601 397303085 397303084_1 397303084_2 397303086 397303083 50568411_1 589533495_1 -589533495_1 -50568411_1 -397303083 -397303086 8796216_1"/>
    </vehicle>
    <vehicle id="1682" depart="112.00" departLane="best" departPos="random" departSpeed="max">
        <route edges="8796076_3 8797131_9 -484878996_4 -484878996_3 -484878996_5 -484878996_2 484878996_2 484878996_5 484878996_3 484878996_4 8797554_1 -8797554_1 -484878996_4 -484878996_3 -484878996_5 -484878996_2 -484878996_1 -8796216_2 -8796216_1 397303086 397303083 50568411_1 589533495_1 -589533495_1 -50568411_1 -397303083 -397303086 -397303084_2 397303084_2 -397303084_2 -397303084_1 -397303085 374711603 777809605_2 468422740 686997726 468422741 468421253 468421254 468421252 8797819_1 468421256_1 468421256_2 468421255 589533491 752702309 125568090 -589533495_2 -589533495_1 -50568411_1 -397303083 -397303086 8796216_1 8796216_2 484878996_1 484878996_2 8797259_1 8797259_5 8797259_6 8797259_4"/>
    </vehicle>
    <vehicle id="2081" depart="138.00" departLane="best" departPos="random" departSpeed="max">
        <route edges="361085968_2 -190641518_1 719026490_1 565167440 564768404_2 719395506_1 719395506_9 719395506_5 719395506_11 8795651_4 621527175_9 621527175_2 621527175_3 621527175_8 621527175_10 621527175_11 719026490_1 565167440 564768404_2 719395506_1 719395506_9 719395506_5 719395506_11 719395506_10 719395506_8 719395506_7 -156723058 156723058 719395506_3 719395506_4 50575480_2 330310753_1 330310753_2 330310713_1 330310713_3 330310713_2 -8796216_2 -8796216_1 -397303084_2 -397303084_1 -397303085 374711603 777809605_2 468422740 686997726 468422741 468421253 468421254 468421252 8797819_1 468421256_1 468421256_2 468421255 589533491 752702309 125568090 -589533495_2 -589533495_1 -50568411_1 -397303083 -397303086 8796216_1 -8796216_1 -397303084_2 -397303084_1 -397303085 374711603 777809605_2 468422740 686997726 468422741 468421253 468421254 468421252 8797819_1 8797819_2 8797819_3 8797399_2"/>
    </vehicle>
    <vehicle id="2241" depart="149.00" departLane="best" departPos="random" departSpeed="max">
        <route edges="565167472_2 778910124 28317285_3 719395506_1 719395506_9 719395506_5 719395506_11 8795651_4 621527175_9 8797131_1 8797131_2 8797131_6 8797131_5 8797131_9 -484878996_4 -484878996_3 -484878996_5 -484878996_2 -484878996_1 -8796216_2 -8796216_1 -397303084_2 -397303084_1 -397303085 374711603 777809605_2 468422740 686997726 468422741 468421253 468421254 468421252 8797819_1 468421256_1 468421256_2 468421255 589533491 752702309 125568090 -589533495_2 -589533495_1 -50568411_1 -397303083 -397303086 8796216_1 8796216_2 484878996_1 484878996_2 484878996_5 484878996_3 484878996_4 8797554_1 -8797554_1 -484878996_4 -484878996_3 -484878996_5 -484878996_2 -484878996_1 -8796216_2 -8796216_1 -397303084_2 -397303084_1 -397303085 -8796601 45270121_2 45270121_3 330310753_1 330310753_2 330310713_1 330310713_3 330310713_2 -8796216_2 -8796216_1"/>
    </vehicle>
    <vehicle id="2243" depart="149.00" departLane="best" departPos="random" departSpeed="max">
        <route edges="8797819_1 468421256_1 468421256_2 468421255 589533491 752702309 125568090 -589533495_2 589533495_2 -589533495_2 -589533495_1 -50568411_1 -397303083 -397303086 -397303084_2 -397303084_1 -397303085 374711603 777809605_2 468422740 686997726 589533491 752702309 125568090 -589533495_2 -589533495_1 -50568411_1 -397303083 -397303086 -397303084_2 -397303084_1 -397303085 374711603 777809605_2 468422740 686997726 589533491 752702309 125568090 -589533495_2 -589533495_1 44465157 589533494 125568090 -589533495_2 -589533495_1 44465157 589533490 589533498 468422742 590645027 468421268 397303085 397303084_1 397303084_2 397303086 397303083 50568411_1 589533495_1"/>
    </vehicle>
    <vehicle id="2294" depart="152.00" departLane="best" departPos="random" departSpeed="max">
        <route edges="565167472_1 565167472_2 778910124 28317285_3 719395506_1 565167467 621527175_10 621527175_11 719026490_1 565167440 564768404_2 719395506_1 719395506_9 719395506_5 719395506_11 719395506_10 719395506_8 719395506_7 719395506_3 719395506_4 50575480_2 330310753_1 59432574 374711603 777809605_2 468422740 686997726 589533491 752702309 125568090 -589533495_2 -589533495_1 -50568411_1 -397303083 -397303086 -397303084_2 -397303084_1"/>
    </vehicle>
    <vehicle id="2308" depart="153.00" departLane="best" departPos="random" departSpeed="max">
        <route edges="330310713_1 330310713_3 330310713_2 -8796216_2 8796216_2 -8796216_2 -8796216_1 -397303084_2 -397303084_1 -397303085 374711603 777809605_2 468422740 686997726 589533491 752702309 125568090 -589533495_2 -589533495_1 -50568411_1 -397303083 -397303086 8796216_1 8796216_2 484878996_1 484878996_2 484878996_5 484878996_3 484878996_4 -484878996_4 -484878996_3 -484878996_5 -484878996_2 -484878996_1 -8796216_2 -8796216_1 397303086 397303083 50568411_1 589533495_1 -589533495_1 -50568411_1 -397303083 -397303086 -397303084_2 -397303084_1 -397303085 374711603 777809605_2 468422740 686997726 468422741 468421253 468421254 468421252 8797819_1 468421256_1 468421256_2 468421255 589533491 752702309 125568090 -589533495_2 -589533495_1 -50568411_1 -397303083 -397303086 8796216_1 8796216_2 484878996_1 484878996_2 484878996_5 484878996_3 484878996_4 8797554_1"/>
    </vehicle>
    <vehicle id="2563" depart="170.00" departLane="best" departPos="random" departSpeed="max">
        <route edges="719395505_1 719395505_2 719395505_3 719026490_1 565167440 564768404_2 719395506_1 719395506_9 719395506_5 719395506_11 719395506_10 719395506_8 719395506_7 719395506_3 719395506_4 50575480_2 330310753_1 59432574 397303085 397303084_1 397303084_2 397303086 397303083 50568411_1 -50568411_1 -397303083 -397303086 -397303084_2 -397303084_1 -397303085 374711603 777809605_2 468422740 686997726 468422741 468421253 468421254 468421252 8797819_1 468421256_1 468421256_2 468421255 589533491 752702309 125568090 -589533495_2 589533495_2 -589533495_2 -589533495_1 -50568411_1 -397303083 -397303086 8796216_1 8796216_2 484878996_1 484878996_2 484878996_5 484878996_3 -484878996_3 -484878996_5 -484878996_2 -484878996_1 -8796216_2 -8796216_1 -397303084_2 -397303084_1 -397303085 374711603 777809605_2 468422740 686997726 589533491 752702309 125568090 -589533495_2 -589533495_1 -50568411_1 -397303083 -397303086 -397303084_2 -397303084_1 -397303085 374711603 777809605_2 468422740 686997726 468422741 468421253 468421254 468421252 8797819_1"/>
    </vehicle>
    <vehicle id="2752" depart="183.00" departLane="best" departPos="random" departSpeed="max">
        <route edges="779698678 8796806_4 8796806_3 8795651_1 8795651_2 8795651_3 719395506_10 719395506_8 719395506_7 719395506_3 719395506_4 50575480_2 330310753_1 59432574 397303085 397303084_1 397303084_2 8796216_1 8796216_2 484878996_1 484878996_2 484878996_5 -484878996_5 -484878996_2 -484878996_1 -8796216_2 -8796216_1 -397303084_2 -397303084_1 -397303085 374711603 777809605_2 468422740 686997726 468422741 468421253 468421254 468421252 8797819_1 8797819_2 8797819_3 8797399_2 40802860 8797819_3 8797399_2 8797399_3 -589533495_2 -589533495_1 -50568411_1 -397303083 -397303086 -397303084_2 -397303084_1 -397303085 -8796601 45270121_2 45270121_3 330310753_1 330310753_2 330310713_1 330310713_3 330310713_2 484878996_1 484878996_2 484878996_5 484878996_3 484878996_4 8797554_1 -8797554_1"/>
    </vehicle>
    <vehicle id="2979" depart="198.00" departLane="best" departPos="random" departSpeed="max">
        <route edges="8796806_3 8795651_1 8795651_2 8795651_3 8795651_4 621527175_9 621527175_2 621527175_3 621527175_8 621527175_10 565167469_1 565167469_2 719395505_3 719026490_1 565167440 564768404_2 719395506_1 719395506_9 269095741 621527175_3 621527175_8 621527175_10 621527175_11 719026490_1 565167440 564768404_2 719395506_1 719395506_9 719395506_5 719395506_11 719395506_10 719395506_8 719395506_7 719395506_3 719395506_4 50575480_2 330310753_1 330310753_2 330310713_1 330310713_3 330310713_2 484878996_1 484878996_2 484878996_5 -484878996_5 -484878996_2 -484878996_1 -330310713_2 8796076_1 8796076_3 -8796076_3 -8796076_1 330310713_2 -8796216_2 -8796216_1 -397303084_2 -397303084_1 -397303085 374711603 777809605_2 468422740 686997726 468422741 468421253 468421254 468421252 8797819_1 468421256_1"/>
    </vehicle>
    <vehicle id="3058" depart="203.00" departLane="best" departPos="random" departSpeed="max">
        <route edges="-8795503_5 8795503_5 8795503_3 330310753_1 59432574 374711603 777809605_2 468422740 686997726 468422741 468421253 468421254 468421252 8797819_1 468421256_1 468421256_2 468421255 589533491 752702309 125568090 -589533495_2 -589533495_1 44465157 589533490 589533498 468422742 590645027 468421268 -8796601 8796601 397303085 397303084_1 397303084_2 8796216_1 8796216_2 -8796216_2 -8796216_1 397303086 397303083 50568411_1 44465157 589533490 589533498 468422742 590645027 468421268 38015401 330310713_1 330310713_3 330310713_2"/>
    </vehicle>
    <vehicle id="3413" depart="227.00" departLane="best" departPos="random" departSpeed="max">
        <route edges="484878996_3 -484878996_3 -484878996_5 -484878996_2 -484878996_1 -8796216_2 -8796216_1 397303086 397303083 50568411_1 589533495_1 589533495_2 -589533495_2 -589533495_1 -50568411_1 -397303083 -397303086 -397303084_2 -397303084_1 -397303085 38015401 330310713_1 330310713_3 8796076_1 8796076_3 8797131_9 -484878996_4 -484878996_3 -484878996_5 -484878996_2 -484878996_1 -8796216_2 -8796216_1 -397303084_2 -397303084_1 -397303085 -8796601 45270121_2 45270121_3 -8795503_3 8795503_3 330310753_1 59432574 374711603 777809605_2 468422740 686997726 589533491 752702309 125568090 -589533495_2 -589533495_1 -50568411_1 -397303083 -397303086 8796216_1 8796216_2 484878996_1 484878996_2 484878996_5 484878996_3 484878996_4 8797131_3 8797131_4"/>
    </vehicle>
    <vehicle id="3542" depart="236.00" departLane="best" departPos="random" departSpeed="max">
        <route edges="-8796353_5 8796353_5 156723058 719395506_3 719395506_4 50575480_2 330310753_1 330310753_2 330310713_1 330310713_3 330310713_2 -330310713_2 330310713_2 -8796216_2 -8796216_1 -397303084_2 -397303084_1 -397303085 374711603 777809605_2 468422740 686997726 468422741 468421253 468421254 468421252 8797819_1 8797819_2 8797819_3 8797399_2 40802860 8797819_3 8797399_2 8797399_3 -589533495_2 -589533495_1 -50568411_1 -397303083 -397303086 -397303084_2 397303084_2 -397303084_2 -397303084_1 -397303085 374711603 777809605_2 468422740 686997726 589533491 752702309 125568090 -589533495_2 -589533495_1 -50568411_1 -397303083 -397303086 8796216_1 8796216_2 484878996_1 -484878996_1 -8796216_2 -8796216_1 -397303084_2 -397303084_1 -397303085 -8796601"/>
    </vehicle>
    <vehicle id="3613" depart="240.00" departLane="best" departPos="random" departSpeed="max">
        <route edges="-484878996_3 -484878996_5 -484878996_2 -484878996_1 -8796216_2 -8796216_1 -397303084_2 -397303084_1 -397303085 374711603 777809605_2 468422740 686997726 468422741 468421253 468421254 468421252 8797819_1 468421256_1 468421256_2 468421255 589533491 752702309 125568090 -589533495_2 -589533495_1 -50568411_1 -397303083 -397303086 8796216_1 8796216_2 -330310713_2 8796076_1 8796076_3 8797131_9 -484878996_4 -484878996_3 -484878996_5 -484878996_2 -484878996_1 -8796216_2 -8796216_1 -397303084_2 -397303084_1 -397303085 374711603 777809605_2 468422740 686997726 468422741 468421253 468421254 468421252 8797819_1 468421256_1 468421256_2 468421255 589533491 752702309 125568090 -589533495_2 -589533495_1 589533495_1 -589533495_1 -50568411_1 -397303083 -397303086 8796216_1 8796216_2 484878996_1 484878996_2 8797259_1 8797259_5 8797259_6 8797259_4 8797259_7"/>
    </vehicle>
    <vehicle id="4076" depart="271.00" departLane="best" departPos="random" departSpeed="max">
        <route edges="330310713_3 330310713_2 -8796216_2 -8796216_1 8796216_1 -8796216_1 397303086 397303083 50568411_1 44465157 589533490 589533498 468422742 590645027 468421268 -8796601 8796601 38015401 330310713_1 330310713_3 8796076_1 8796076_3 8797131_9 -484878996_4 -484878996_3 -484878996_5 -484878996_2 -484878996_1 -330310713_2 330310713_2 -8796216_2 -8796216_1 -397303084_2 -397303084_1 -397303085 374711603 777809605_2 468422740 686997726 589533491"/>
    </vehicle>
    <vehicle id="4672" depart="311.00" departLane="best" departPos="random" departSpeed="max">
        <route edges="207634647 45270121_3 330310753_1 330310753_2 330310713_1 -330310713_1 330310713_1 330310713_3 -330310713_3 330310713_3 330310713_2 -8796216_2 -8796216_1 -397303084_2 -397303084_1 -397303085 374711603 777809605_2 468422740 686997726 468422741 468421253 468421254 468421252 8797819_1 8797819_2 8797819_3 8797399_2 8797399_3 -589533495_2 -589533495_1 -50568411_1 -397303083 -397303086 8796216_1 -8796216_1 -397303084_2 -397303084_1 -397303085 374711603 777809605_2 468422740 686997726 468422741 468421253 468421254 468421252 8797819_1 8797819_2 8797819_3"/>
    </vehicle>
    <vehicle id="4709" depart="313.00" departLane="best" departPos="random" departSpeed="max">
        <route edges="468421268 38015401 330310713_1 330310713_3 330310713_2 -8796216_2 -8796216_1 397303086 -397303086 -397303084_2 -397303084_1 -397303085 374711603 777809605_2 468422740 686997726 589533491 752702309 125568090 -589533495_2 -589533495_1 -50568411_1 -397303083 -397303086 -397303084_2 -397303084_1 -397303085 374711603 777809605_2 468422740 686997726 468422741 468421253 468421254 468421252 8797819_1 468421256_1 468421256_2 468421255"/>
    </vehicle>
    <vehicle id="5066" depart="337.00" departLane="best" departPos="random" departSpeed="max">
        <route edges="8797399_3 -589533495_2 -589533495_1 -50568411_1 -397303083 -397303086 8796216_1 8796216_2 484878996_1 -484878996_1 -8796216_2 -8796216_1 -397303084_2 -397303084_1 -397303085 38015401 330310713_1 330310713_3 330310713_2 -8796216_2 -8796216_1 -397303084_2 -397303084_1 -397303085 -8796601 45270121_2 45270121_3 -8795503_3 207634647 45270121_3 330310753_1 330310753_2 330310713_1 330310713_3 330310713_2 -8796216_2 -8796216_1 397303086 397303083 50568411_1 44465157 589533490 589533498"/>
    </vehicle>
    <vehicle id="5454" depart="363.00" departLane="best" departPos="random" departSpeed="max">
        <route edges="719395506_3 719395506_4 50575480_2 330310753_1 330310753_2 330310713_1 330310713_3 330310713_2 484878996_1 484878996_2 484878996_5 -484878996_5 -484878996_2 -484878996_1 484878996_1 484878996_2 484878996_5 -484878996_5 -484878996_2 -484878996_1 -8796216_2 -8796216_1 -397303084_2 -397303084_1 -397303085 -8796601 8796601 38015401 330310713_1 330310713_3 8796076_1 8796076_3 -8796076_3 -8796076_1 8796076_1"/>
    </vehicle>
    <vehicle id="5940" depart="396.00" departLane="best" departPos="random" departSpeed="max">
        <route edges="8796806_3 8795651_1 8795651_2 8795651_3 719395506_10 719395506_8 719395506_7 719395506_3 719395506_4 50575480_2 330310753_1 59432574 397303085 397303084_1 397303084_2 397303086 -397303086 397303086 -397303086 8796216_1 8796216_2 484878996_1 484878996_2 484878996_5 484878996_3 -484878996_3 -484878996_5 -484878996_2 -484878996_1 -8796216_2 -8796216_1 397303086 397303083 50568411_1 589533495_1 -589533495_1 -50568411_1 -397303083 -397303086 8796216_1 8796216_2 484878996_1 484878996_2 484878996_5 484878996_3 484878996_4 8797554_1 8797554_4 8797554_3 -8797554_3 -8797554_4 -8797554_1 -484878996_4 -484878996_3 -484878996_5 8797259_1 8797259_5 8797259_6"/>
    </vehicle>
    <vehicle id="6073" depart="404.00" departLane="best" departPos="random" departSpeed="max">
        <route edges="565167473 565167472_2 778910124 28317285_3 719395505_1 719395505_2 719395505_3 190641518_1 -190641518_1 719026490_1 565167440 564768404_2 719395506_1 719395506_9 719395506_5 719395506_11 8795651_4 621527175_9 8797131_1 8797131_2 8797131_6 8797131_5 -8796076_3 8796076_3 -8796076_3 -8796076_1 330310713_2 -330310713_2 -330310713_3 330310713_3 330310713_2 -8796216_2 -8796216_1 -397303084_2 -397303084_1 -397303085 374711603 777809605_2 468422740 686997726 589533491 752702309 125568090 -589533495_2 -589533495_1 -50568411_1 -397303083 -397303086 8796216_1 8796216_2 484878996_1 484878996_2 484878996_5 484878996_3 484878996_4 8797131_3 8797131_4 8797131_7"/>
    </vehicle>
    <vehicle id="6109" depart="407.00" departLane="best" departPos="random" departSpeed="max">
        <route edges="302958496 621527175_4 621527175_6 621527175_5 621527175_9 621527175_2 621527175_3 621527175_8 621527175_10 621527175_11 719026490_1 565167440 564768404_2 719395506_1 719395506_9 719395506_5 719395506_11 719395506_10 719395506_8 719395506_7 -156723058 8796353_3 8795651_2 8795651_3 719395506_10 719395506_8 719395506_7 719395506_3 719395506_4 50575480_2 330310753_1 330310753_2 330310713_1 330310713_3 330310713_2 484878996_1 -484878996_1 -8796216_2 -8796216_1 397303086 397303083 50568411_1 44465157 589533490 589533498 468422742 590645027 468421268 -8796601 45270121_2 45270121_3 -45270121_3 45270121_3 330310753_1 330310753_2 330310713_1 330310713_3 330310713_2 484878996_1 484878996_2 484878996_5"/>
    </vehicle>
    <vehicle id="6181" depart="412.00" departLane="best" departPos="random" departSpeed="max">
        <route edges="469146407_3 590571550 484879000 125568089_2 590571542_2 469146402 468422741 468421253 468421254 468421252 8797819_1 468421256_1 468421256_2 468421255 589533491 752702309 125568090 -589533495_2 -589533495_1 -50568411_1 -397303083 -397303086 8796216_1 8796216_2 484878996_1 484878996_2 484878996_5 484878996_3 484878996_4 -484878996_4 -484878996_3 -484878996_5 -484878996_2 -484878996_1 -330310713_2 8796076_1 8796076_3 8797131_9 -484878996_4 -484878996_3 -484878996_5 -484878996_2 484878996_2 484878996_5 484878996_3 484878996_4 8797131_3 8797131_4 747449010_1 747449010_2 747449012"/>
    </vehicle>
    <vehicle id="6294" depart="419.00" departLane="best" departPos="random" departSpeed="max">
        <route edges="125568090 -589533495_2 -589533495_1 -50568411_1 -397303083 -397303086 8796216_1 8796216_2 484878996_1 484878996_2 484878996_5 484878996_3 484878996_4 8797554_1 -8797554_1 -484878996_4 -484878996_3 -484878996_5 -484878996_2 -484878996_1 -8796216_2 -8796216_1 397303086 -397303086 8796216_1 8796216_2 -330310713_2 8796076_1 -8796076_1 330310713_2 -8796216_2 -8796216_1 -397303084_2 -397303084_1 -397303085 38015401 330310713_1 330310713_3 8796076_1 8796076_3 -8796076_3 -8796076_1 330310713_2 -8796216_2 -8796216_1"/>
    </vehicle>
    <vehicle id="6537" depart="435.00" departLane="best" departPos="random" departSpeed="max">
        <route edges="565167486 8796353_3 8795651_2 8795651_3 8795651_4 621527175_9 8797131_1 206857465_1 206857465_2 206857465_3 621527175_8 621527175_10 621527175_11 719026490_1 565167440 564768404_2 719395506_1 719395506_9 719395506_5 719395506_11 719395506_10 719395506_8 719395506_7 719395506_3 719395506_4 50575480_2 330310753_1 59432574 397303085 397303084_1 -397303084_1 -397303085 397303085 397303084_1 397303084_2 397303086 397303083 50568411_1 -50568411_1 -397303083 -397303086 -397303084_2 397303084_2 -397303084_2 -397303084_1 -397303085 38015401 330310713_1 330310713_3 330310713_2 484878996_1 484878996_2 484878996_5 484878996_3 484878996_4 8797131_3 565167449 772170796_3"/>
    </vehicle>
    <vehicle id="7257" depart="483.00" departLane="best" departPos="random" departSpeed="max">
        <route edges="-484878996_1 -8796216_2 -8796216_1 397303086 397303083 50568411_1 44465157 589533490 589533498 468422742 590645027 468421268 397303085 397303084_1 397303084_2 397303086 397303083 50568411_1 44465157 589533494 125568090 -589533495_2 -589533495_1 -50568411_1 -397303083 -397303086 -397303084_2 -397303084_1 -397303085 397303085 397303084_1 -397303084_1 -397303085 374711603 777809605_2 468422740 686997726 468422741 468421253 468421254 468421252 8797819_1 468421256_1 468421256_2 468421255 589533491 752702309 125568090 -589533495_2 -589533495_1 -50568411_1 -397303083 -397303086 8796216_1 8796216_2 -330310713_2 8796076_1 8796076_3 8797131_9 -484878996_4 -484878996_3 -484878996_5 -484878996_2 -484878996_1 -8796216_2 -8796216_1 -397303084_2 -397303084_1 -397303085 374711603 777809605_2"/>
    </vehicle>
    <vehicle id="7319" depart="487.00" departLane="best" departPos="random" departSpeed="max">
        <route edges="719395506_8 719395506_7 719395506_3 719395506_4 50575480_2 330310753_1 330310753_2 330310713_1 -330310713_1 330310713_1 330310713_3 8796076_1 -8796076_1 330310713_2 -8796216_2 -8796216_1 397303086 397303083 50568411_1 44465157 589533490 589533498 468422742 590645027 468421268 38015401 330310713_1 330310713_3 8796076_1 8796076_3 -8796076_3 -8796076_1 330310713_2 -8796216_2 -8796216_1 -397303084_2 -397303084_1 -397303085 -8796601 45270121_2 -45270121_2 8796601 397303085 397303084_1 397303084_2 8796216_1 8796216_2"/>
    </vehicle>
    <vehicle id="7325" depart="488.00" departLane="best" departPos="random" departSpeed="max">
        <route edges="469146407_2 469146407_3 590571550 8796806_1 8796806_5 8796806_4 8796806_3 8795651_1 8795651_2 8795651_3 8795651_4 621527175_9 621527175_2 621527175_3 621527175_8 621527175_10 565167469_1 565167469_2 719395505_3 719026490_1 565167440 564768404_2 719395506_1 719395506_9 719395506_5 719395506_11 8795651_4 621527175_9 621527175_2 621527175_3 621527175_8 621527175_10 621527175_11 719026490_1 565167440 564768404_2 719395506_1 719395506_9 719395506_5 719395506_11 8795651_4 621527175_9 8797131_1 8797131_2 8797131_6 8797131_5 8797131_9 -484878996_4 -484878996_3 484878996_3 -484878996_3 -484878996_5 8797259_1 8797259_5"/>
    </vehicle>
    <vehicle id="8154" depart="543.00" departLane="best" departPos="random" departSpeed="max">
        <route edges="8795651_3 8795651_4 621527175_9 621527175_2 621527175_3 621527175_8 621527175_10 621527175_11 719026490_1 565167440 564768404_2 719395506_1 719395506_9 719395506_5 719395506_11 719395506_10 719395506_8 719395506_7 -156723058 -8796353_5 -8796353_7 -8796353_6 567066770 8796353_7 8796353_5 8796353_3 8795651_2 8795651_3 8795651_4 621527175_9 8797131_1 8797131_2 8797131_6 8797131_5 8797131_9 -484878996_4 -484878996_3 -484878996_5 -484878996_2 -484878996_1 -8796216_2 -8796216_1 -397303084_2 -397303084_1 -397303085 374711603 777809605_2 468422740 686997726 589533491 752702309 125568090 -589533495_2 -589533495_1 -50568411_1 -397303083 -397303086 8796216_1 8796216_2 484878996_1 484878996_2 8797259_1 8797259_5 8797259_6 8797259_4 8797259_7 8797259_3 8797176"/>
    </vehicle>
    <vehicle id="8201" depart="546.00" departLane="best" departPos="random" departSpeed="max">
        <route edges="621527175_11 719026490_1 565167440 564768404_2 719395506_1 719395506_9 719395506_5 719395506_11 8795651_4 621527175_9 8797131_1 8797131_2 8797131_6 8797131_5 8797131_9 8797554_1 8797554_4 -8797554_4 -8797554_1 -484878996_4 -484878996_3 -484878996_5 -484878996_2 -484878996_1 -8796216_2 -8796216_1 -397303084_2 -397303084_1 -397303085 374711603 777809605_2 468422740 686997726 468422741 468421253 468421254 468421252 8797819_1 468421256_1 468421256_2 468421255 589533491 752702309 125568090 -589533495_2 -589533495_1 -50568411_1 -397303083 -397303086 -397303084_2 -397303084_1 -397303085 -8796601 45270121_2 45270121_3 330310753_1 59432574 374711603 777809605_2 468422740 686997726 468422741 468421253 468421254 468421252 8797819_1 468421256_1 468421256_2 468421255 589533491 752702309 125568090 -589533495_2 -589533495_1 -50568411_1 -397303083 -397303086 8796216_1 8796216_2 -330310713_2 8796076_1 8796076_3 8797131_9 -484878996_4 -484878996_3 -484878996_5 -484878996_2 -484878996_1 -8796216_2 -8796216_1 -397303084_2 -397303084_1 -397303085 374711603 777809605_2 468422740"/>
    </vehicle>
    <vehicle id="8203" depart="546.00" departLane="best" departPos="random" departSpeed="max">
        <route edges="589533495_1 -589533495_1 -50568411_1 -397303083 -397303086 8796216_1 8796216_2 -330310713_2 330310713_2 -8796216_2 -8796216_1 -397303084_2 -397303084_1 -397303085 374711603 777809605_2 468422740 686997726 468422741 468421253 468421254 468421252 8797819_1 468421256_1 468421256_2 468421255 589533491 752702309 125568090 -589533495_2 -589533495_1 -50568411_1 -397303083 -397303086 -397303084_2 -397303084_1 -397303085 -8796601 45270121_2 45270121_3 330310753_1 59432574 397303085 397303084_1 397303084_2 397303086 397303083 50568411_1 44465157 589533490 589533498 468422742 590645027 468421268 38015401 330310713_1 330310713_3 330310713_2 484878996_1 484878996_2 484878996_5 565167445 8797403_3"/>
    </vehicle>
    <vehicle id="8380" depart="558.00" departLane="best" departPos="random" departSpeed="max">
        <route edges="269095741 621527175_3 621527175_8 621527175_10 621527175_11 719026490_1 565167440 564768404_2 719395506_1 719395506_9 719395506_5 719395506_11 719395506_10 719395506_8 719395506_7 719395506_3 719395506_4 50575480_2 330310753_1 330310753_2 330310713_1 330310713_3 330310713_2 -8796216_2 -8796216_1 397303086 397303083 50568411_1 589533495_1 589533495_2 -589533495_2 -589533495_1 -50568411_1 -397303083 -397303086 -397303084_2 -397303084_1 -397303085 -8796601 45270121_2 45270121_3 -8795503_3 207634647 45270121_3 330310753_1 330310753_2 330310713_1 330310713_3 8796076_1 -8796076_1 330310713_2 -8796216_2 -8796216_1 -397303084_2 -397303084_1 -397303085 374711603 777809605_2 468422740 686997726 468422741 468421253 468421254 468421252"/>
    </vehicle>
    <vehicle id="8620" depart="574.00" departLane="best" departPos="random" departSpeed="max">