<?xml version="1.0" encoding="UTF-8"?>

<!-- generated on 2022-01-15 16:05:14 by Eclipse SUMO duarouter Version 1.11.0
<configuration xmlns:xsi="http://www.w3.org/2001/XMLSchema-instance" xsi:noNamespaceSchemaLocation="http://sumo.dlr.de/xsd/duarouterConfiguration.xsd">

    <input>
        <net-file value="sumo.net.xml"/>
        <route-files value="trips.trips.xml"/>
    </input>

    <output>
        <output-file value="sumo.rou.xml"/>
        <alternatives-output value="sumo.rou.alt.xml"/>
    </output>

    <time>
        <begin value="0"/>
        <end value="1000"/>
    </time>

    <report>
        <no-warnings value="true"/>
        <ignore-errors value="true"/>
        <no-step-log value="true"/>
    </report>

</configuration>
-->

<routes xmlns:xsi="http://www.w3.org/2001/XMLSchema-instance" xsi:noNamespaceSchemaLocation="http://sumo.dlr.de/xsd/routes_file.xsd">
    <vehicle id="103" depart="2.00" departPos="random" departSpeed="max">
        <route edges="-45270121_6 45270121_6 8796601 374711603 777809605_2 468422740 686997726 589533491 752702309 125568090 -589533495_2 -589533495_1 -50568411_1 -397303083 -397303086 8796216_1 8796216_2 -330310713_2 330310713_2 -8796216_2 -8796216_1 397303086 397303083 50568411_1 44465157 589533490 589533498 468422742 590645027 468421268 374711603 777809605_2 468422740 686997726 468422741 468421253 468421254 468421252 8797819_1 8797819_2 8797819_3 8797399_2 40802860 8797819_3 8797399_2 8797399_3 -589533495_2 -589533495_1 -50568411_1 -397303083 -397303086 -397303084_2 -397303084_1 -397303085 374711603 777809605_2 468422740 686997726 589533491 752702309 125568090 -589533495_2 -589533495_1 -50568411_1 -397303083 -397303086 8796216_1 8796216_2 484878996_1 484878996_2 8797259_1"/>
    </vehicle>
    <vehicle id="241" depart="5.00" departPos="random" departSpeed="max">
        <route edges="719395505_1 719395505_2 719395505_3 719026490_1 565167440 564768404_2 719395506_1 719395506_9 719395506_5 719395506_11 8795651_4 621527175_9 621527175_2 621527175_3 621527175_8 621527175_10 621527175_11 719026490_1 565167440 564768404_2 719395506_1 719395506_9 719395506_5 719395506_11 8795651_4 621527175_9 8797131_1 8797131_2 8797131_6 8797131_5 8797131_9 -484878996_4 -484878996_3 -484878996_5 -484878996_2 -484878996_1 -330310713_2 -330310713_3 -330310713_1 330310713_1 330310713_3 330310713_2 -8796216_2 -8796216_1 -397303084_2 -397303084_1 -397303085 397303085 397303084_1 397303084_2 -397303084_2 397303084_2 8796216_1 8796216_2 484878996_1 484878996_2 484878996_5 484878996_3 484878996_4"/>
    </vehicle>
    <vehicle id="507" depart="11.00" departPos="random" departSpeed="max">
        <route edges="621527175_8 621527175_10 621527175_11 719026490_1 565167440 564768404_2 719395506_1 719395506_9 719395506_5 719395506_11 8795651_4 621527175_9 8797131_1 8797131_2 8797131_6 8797131_5 8797131_9 -484878996_4 -484878996_3 -484878996_5 -484878996_2 -484878996_1 -8796216_2 -8796216_1 -397303084_2 -397303084_1 -397303085 38015401 330310713_1 330310713_3 330310713_2 -8796216_2 -8796216_1 397303086 397303083 50568411_1 44465157 589533494 125568090 -589533495_2 -589533495_1 -50568411_1 -397303083 -397303086 8796216_1 8796216_2 484878996_1 484878996_2"/>
    </vehicle>
    <vehicle id="795" depart="17.00" departPos="random" departSpeed="max">
        <route edges="8797090_2 8797090_3 8797090_4 719395506_11 719395506_10 719395506_8 719395506_7 719395506_3 719395506_4 50575480_2 330310753_1 59432574 374711603 777809605_2 468422740 686997726 589533491 752702309 125568090 -589533495_2 -589533495_1 -50568411_1 -397303083 -397303086 8796216_1 8796216_2 -330310713_2 330310713_2 -330310713_2 8796076_1 -8796076_1 330310713_2 -8796216_2 -8796216_1 397303086 397303083 50568411_1 -50568411_1 -397303083 -397303086 8796216_1 8796216_2 -330310713_2 -330310713_3 330310713_3 330310713_2 -8796216_2 -8796216_1 -397303084_2 -397303084_1 -397303085 -8796601 45270121_2 45270121_3 -8795503_3 207634647"/>
    </vehicle>
    <vehicle id="1173" depart="26.00" departPos="random" departSpeed="max">
        <route edges="589533490 589533498 468422742 590645027 468421268 -8796601 8796601 374711603 777809605_2 468422740 686997726 468422741 468421253 468421254 468421252 8797819_1 468421256_1 468421256_2 468421255 589533491 752702309 125568090 -589533495_2 -589533495_1 -50568411_1 -397303083 -397303086 -397303084_2 -397303084_1 -397303085 374711603 777809605_2 468422740 686997726 468422741 468421253 468421254 468421252 8797819_1 8797819_2 8797819_3 8797399_2 8797399_3 -589533495_2 -589533495_1 -50568411_1 -397303083 -397303086 8796216_1 8796216_2 -330310713_2 8796076_1 8796076_3 8797131_9 -484878996_4 -484878996_3 -484878996_5 -484878996_2 -484878996_1 -8796216_2 -8796216_1 397303086 397303083 50568411_1 -50568411_1 -397303083 -397303086 8796216_1"/>
    </vehicle>
    <vehicle id="1311" depart="29.00" departPos="random" departSpeed="max">
        <route edges="125568089_1 125568089_2 590571542_2 469146402 589533491 752702309 125568090 -589533495_2 -589533495_1 -50568411_1 -397303083 -397303086 8796216_1 -8796216_1 8796216_1 8796216_2 -330310713_2 -330310713_3 -330310713_1 330310713_1 330310713_3 330310713_2 -8796216_2 -8796216_1 397303086 397303083 50568411_1 44465157 589533490 589533498 468422742 590645027 468421268 38015401 330310713_1 330310713_3 330310713_2 484878996_1 484878996_2 484878996_5 -484878996_5 -484878996_2 -484878996_1 -8796216_2 8796216_2 484878996_1 484878996_2 484878996_5 484878996_3 -484878996_3"/>
    </vehicle>
    <vehicle id="1482" depart="32.00" departPos="random" departSpeed="max">
        <route edges="361085968_1 361085968_2 -190641518_1 719026490_1 565167440 564768404_2 719395506_1 719395506_9 719395506_5 719395506_11 719395506_10 719395506_8 719395506_7 -156723058 8796353_3 -8796353_3 156723058 719395506_3 719395506_4 50575480_2 330310753_1 59432574 374711603 777809605_2 468422740 686997726 468422741 468421253 468421254 468421252 8797819_1 468421256_1 468421256_2 468421255 589533491 752702309 125568090 -589533495_2 -589533495_1 -50568411_1 -397303083 -397303086 -397303084_2 -397303084_1 -397303085 374711603 777809605_2 468422740 686997726 589533491 752702309 125568090 -589533495_2 -589533495_1 -50568411_1 -397303083 -397303086 -397303084_2 -397303084_1 -397303085 -8796601 45270121_2 45270121_3 330310753_1 330310753_2 330310713_1 330310713_3 -330310713_3 330310713_3 330310713_2 -8796216_2 -8796216_1 -397303084_2 -397303084_1 -397303085 374711603 777809605_2 468422740 686997726 468422741 468421253 468421254 468421252 8797819_1 468421256_1"/>
    </vehicle>
    <vehicle id="1729" depart="38.00" departPos="random" departSpeed="max">
        <route edges="8796806_1 8796806_5 8796806_4 8796806_3 8795651_1 8795651_2 8795651_3 719395506_10 719395506_8 719395506_7 719395506_3 719395506_4 50575480_2 -45270121_3 -45270121_2 8796601 397303085 397303084_1 397303084_2 397303086 397303083 50568411_1 589533495_1 -589533495_1 -50568411_1 -397303083 -397303086 8796216_1 8796216_2 484878996_1 484878996_2 484878996_5 484878996_3 -484878996_3 -484878996_5 -484878996_2 -484878996_1 -8796216_2 -8796216_1 397303086 -397303086 397303086 397303083 50568411_1 -50568411_1 -397303083 -397303086 -397303084_2 -397303084_1 -397303085 374711603 777809605_2 468422740 686997726 468422741 468421253 468421254 468421252 8797819_1 8797819_2 8797819_3 8797399_2 8797399_3"/>
    </vehicle>
    <vehicle id="1916" depart="42.00" departPos="random" departSpeed="max">
        <route edges="-8796353_3 156723058 719395506_3 719395506_4 50575480_2 -8795503_3 -8795503_5 8795503_5 8795503_3 330310753_1 59432574 397303085 397303084_1 -397303084_1 -397303085 397303085 397303084_1 397303084_2 397303086 397303083 50568411_1 -50568411_1 -397303083 -397303086 -397303084_2 -397303084_1 -397303085 -8796601 45270121_2 -45270121_2 8796601 374711603 777809605_2 468422740 686997726 468422741 468421253 468421254 468421252 8797819_1 8797819_2 8797819_3 8797399_2 8797399_3 -589533495_2 -589533495_1 -50568411_1 -397303083 -397303086 -397303084_2 -397303084_1 -397303085 374711603 777809605_2 468422740 686997726 468422741"/>
    </vehicle>
    <vehicle id="2067" depart="45.00" departPos="random" departSpeed="max">
        <route edges="8797130_3 8797130_4 8797130_5 719395506_5 719395506_11 719395506_10 719395506_8 719395506_7 719395506_3 719395506_4 50575480_2 330310753_1 59432574 374711603 777809605_2 468422740 686997726 468422741 468421253 468421254 468421252 8797819_1 8797819_2 8797819_3 8797399_2 8797399_3 -589533495_2 -589533495_1 -50568411_1 -397303083 -397303086 8796216_1 8796216_2 484878996_1 484878996_2 -484878996_2 484878996_2 484878996_5 -484878996_5 -484878996_2 -484878996_1 -8796216_2 -8796216_1 -397303084_2 -397303084_1 -397303085 374711603 777809605_2 468422740 686997726 589533491 752702309 125568090 -589533495_2 -589533495_1 -50568411_1 -397303083 -397303086 -397303084_2 -397303084_1 -397303085 374711603 777809605_2 468422740 686997726 468422741 468421253 468421254 468421252 8797819_1 468421256_1 468421256_2 468421255 589533491 752702309 125568090 -589533495_2 -589533495_1 -50568411_1 -397303083 -397303086 8796216_1 8796216_2 484878996_1 484878996_2 8797259_1 8797259_5 8797259_6 8797259_4 8797259_7 8797403_1 8797403_2"/>
    </vehicle>
    <vehicle id="2144" depart="47.00" departPos="random" departSpeed="max">
        <route edges="8795503_5 8795503_3 330310753_1 59432574 -8796601 -45270121_6 45270121_6 8796601 397303085 397303084_1 397303084_2 8796216_1 -8796216_1 -397303084_2 -397303084_1 -397303085 374711603 777809605_2 468422740 686997726 468422741 468421253 468421254 468421252 8797819_1 468421256_1 468421256_2 468421255 589533491 752702309 125568090 -589533495_2 -589533495_1 44465157 589533490 589533498 468422742 590645027 468421268 38015401 330310713_1 330310713_3 8796076_1 8796076_3 8797131_9"/>
    </vehicle>
    <vehicle id="2371" depart="52.00" departPos="random" departSpeed="max">
        <route edges="206657080 435978968 719395506_7 -156723058 8796353_3 8795651_2 8795651_3 8795651_4 621527175_9 8797131_1 206857465_1 206857465_2 206857465_3 621527175_8 621527175_10 621527175_11 719026490_1 565167440 564768404_2 719395506_1 719395506_9 719395506_5 719395506_11 719395506_10 719395506_8 719395506_7 719395506_3 206657080 435978968 719395506_7 -156723058 -8796353_5 -8796353_7 -8796353_6 -8796353_2 8796353_2 8796353_6 8796353_7 8796353_5 156723058 719395506_3 719395506_4 50575480_2 330310753_1 330310753_2 330310713_1 330310713_3 330310713_2"/>
    </vehicle>
    <vehicle id="2558" depart="56.00" departPos="random" departSpeed="max">
        <route edges="8795503_3 330310753_1 330310753_2 330310713_1 -330310713_1 330310713_1 330310713_3 330310713_2 484878996_1 484878996_2 484878996_5 484878996_3 484878996_4 -484878996_4 -484878996_3 -484878996_5 -484878996_2 -484878996_1 -8796216_2 -8796216_1 -397303084_2 397303084_2 -397303084_2 -397303084_1 -397303085 -8796601 8796601 397303085 397303084_1 -397303084_1 -397303085 38015401 330310713_1 330310713_3 330310713_2 484878996_1 484878996_2 484878996_5 484878996_3 484878996_4 8797131_3 565167449"/>
    </vehicle>
    <vehicle id="3258" depart="72.00" departPos="random" departSpeed="max">
        <route edges="302958496 621527175_4 621527175_6 621527175_5 621527175_9 621527175_2 621527175_3 621527175_8 621527175_10 621527175_11 719026490_1 565167440 564768404_2 719395506_1 719395506_9 719395506_5 719395506_11 719395506_10 719395506_8 719395506_7 -156723058 8796353_3 8795651_2 565167466 719395506_8 719395506_7 -156723058 8796353_3 8795651_2 8795651_3 8795651_4 621527175_9 621527175_2 621527175_3 621527175_8 621527175_10 621527175_11 719026490_1 565167440 564768404_2 719395506_1 565167467 621527175_10 621527175_11 719026490_1 565167440 564768404_2 719395506_1 719395506_9 719395506_5 719395506_11 719395506_10 719395506_8 719395506_7 719395506_3 719395506_4 50575480_2 330310753_1 59432574 397303085 397303084_1 397303084_2 397303086 -397303086 8796216_1 8796216_2 -330310713_2 -330310713_3 330310713_3 330310713_2 484878996_1 484878996_2 484878996_5 484878996_3 -484878996_3 -484878996_5 -484878996_2 -484878996_1 -8796216_2 -8796216_1 -397303084_2 -397303084_1 -397303085 374711603 777809605_2 468422740 686997726 468422741 468421253 468421254 468421252 8797819_1 8797819_2 8797819_3 8797399_2"/>
    </vehicle>
    <vehicle id="3314" depart="73.00" departPos="random" departSpeed="max">
        <route edges="621527175_6 565167464 -8796076_1 330310713_2 -8796216_2 -8796216_1 397303086 397303083 50568411_1 589533495_1 589533495_2 -589533495_2 -589533495_1 -50568411_1 -397303083 -397303086 8796216_1 8796216_2 484878996_1 484878996_2 484878996_5 484878996_3 484878996_4 8797554_1 8797554_4 -8797554_4 -8797554_1 -484878996_4 -484878996_3 -484878996_5 -484878996_2 -484878996_1 -8796216_2 -8796216_1 -397303084_2 -397303084_1 -397303085 374711603 777809605_2 468422740 686997726 468422741 468421253 468421254 468421252 8797819_1 8797819_2 8797819_3 8797399_2 8797399_3 -589533495_2 -589533495_1 44465157 589533490 589533498 468422742 590645027 468421268 374711603 777809605_2 468422740 686997726 468422741 468421253 468421254 468421252 8797819_1 468421256_1 468421256_2 468421255 589533491 752702309 125568090 -589533495_2 -589533495_1 -50568411_1 -397303083 -397303086 -397303084_2 -397303084_1 -397303085 -8796601 -45270121_6 780276549"/>
    </vehicle>
    <vehicle id="3564" depart="79.00" departPos="random" departSpeed="max">
        <route edges="468421267 59432574 374711603 777809605_2 468422740 686997726 468422741 468421253 468421254 468421252 8797819_1 8797819_2 8797819_3 8797399_2 8797399_3 -589533495_2 -589533495_1 -50568411_1 -397303083 -397303086 -397303084_2 -397303084_1 -397303085 -8796601 45270121_2 45270121_3 -8795503_3 8795503_3 330310753_1 330310753_2 330310713_1 330310713_3 330310713_2 484878996_1 484878996_2 484878996_5 484878996_3 484878996_4 8797554_1 8797554_4 -8797554_4 -8797554_1 -484878996_4 -484878996_3 -484878996_5 -484878996_2 -484878996_1 -8796216_2 -8796216_1 -397303084_2 -397303084_1 -397303085 -8796601 45270121_2 -45270121_2 8796601 38015401 330310713_1 330310713_3 330310713_2 484878996_1 484878996_2 484878996_5 484878996_3 484878996_4 8797554_1 -8797554_1 -484878996_4 -484878996_3 -484878996_5 -484878996_2 -484878996_1 -8796216_2 -8796216_1 -397303084_2 -397303084_1 -397303085 374711603 777809605_2 468422740 686997726 589533491"/>
    </vehicle>
    <vehicle id="3609" depart="80.00" departPos="random" departSpeed="max">
        <route edges="469146407_2 469146407_3 590571550 8796806_1 8796806_5 8796806_4 8796806_3 8795651_1 8795651_2 8795651_3 8795651_4 621527175_9 621527175_2 621527175_3 621527175_8 621527175_10 621527175_11 719026490_1 565167440 564768404_2 719395506_1 719395506_9 719395506_5 719395506_11 719395506_10 719395506_8 719395506_7 719395506_3 719395506_4 50575480_2 330310753_1 59432574 374711603 777809605_2 468422740 686997726 468422741 468421253 468421254 468421252 8797819_1 468421256_1 468421256_2 468421255 589533491 752702309 125568090 -589533495_2 -589533495_1 -50568411_1 -397303083 -397303086 8796216_1 8796216_2 484878996_1 484878996_2 484878996_5 484878996_3 484878996_4 8797554_1 8797554_4 -8797554_4 -8797554_1 -484878996_4 -484878996_3 -484878996_5 -484878996_2 -484878996_1 -330310713_2 -330310713_3 -330310713_1 330310713_1 330310713_3 330310713_2 484878996_1 484878996_2 8797259_1 8797259_5 8797259_6 8797259_4 8797259_7 8797403_1 778609967"/>
    </vehicle>
    <vehicle id="3695" depart="82.00" departPos="random" departSpeed="max">
        <route edges="-190641518_1 719026490_1 565167440 564768404_2 719395506_1 719395506_9 719395506_5 719395506_11 719395506_10 719395506_8 719395506_7 719395506_3 719395506_4 50575480_2 330310753_1 330310753_2 330310713_1 330310713_3 330310713_2 -8796216_2 -8796216_1 -397303084_2 -397303084_1 -397303085 374711603 777809605_2 468422740 686997726 468422741 468421253 468421254 468421252 8797819_1 8797819_2 8797819_3 8797399_2 8797399_3 -589533495_2 -589533495_1 -50568411_1 -397303083 -397303086 8796216_1 8796216_2 -330310713_2 8796076_1 -8796076_1 -330310713_3 -330310713_1"/>
    </vehicle>
    <vehicle id="4046" depart="89.00" departPos="random" departSpeed="max">
        <route edges="778910144 8797090_3 8797090_4 719395506_11 719395506_10 719395506_8 719395506_7 -156723058 8796353_3 8795651_2 8795651_3 8795651_4 621527175_9 8797131_1 8797131_2 8797131_6 8797131_5 8797131_9 8797554_1 8797554_4 -8797554_4 -8797554_1 -484878996_4 -484878996_3 -484878996_5 -484878996_2 -484878996_1 -8796216_2 -8796216_1 -397303084_2 -397303084_1 -397303085 -8796601 45270121_2 45270121_3 330310753_1 59432574 397303085 397303084_1 397303084_2 397303086 -397303086 -397303084_2 -397303084_1 -397303085 374711603 777809605_2 468422740 686997726 468422741 468421253 468421254 468421252 8797819_1 8797819_2 8797819_3 8797399_2 40802860 8797819_3 8797399_2 8797399_3 -589533495_2 -589533495_1 -50568411_1 -397303083 -397303086 -397303084_2 -397303084_1 -397303085 374711603 777809605_2 468422740"/>
    </vehicle>
    <vehicle id="4455" depart="99.00" departPos="random" departSpeed="max">
        <route edges="565167469_1 565167469_2 719395505_3 719026490_1 565167440 564768404_2 719395506_1 719395506_9 719395506_5 719395506_11 719395506_10 719395506_8 719395506_7 719395506_3 719395506_4 50575480_2 330310753_1 330310753_2 330310713_1 330310713_3 330310713_2 484878996_1 484878996_2 -484878996_2 -484878996_1 -8796216_2 -8796216_1 -397303084_2 -397303084_1 -397303085 374711603 777809605_2 468422740 686997726 589533491 752702309 125568090 -589533495_2 -589533495_1 -50568411_1 -397303083 -397303086 8796216_1 8796216_2 484878996_1 484878996_2 -484878996_2 -484878996_1 -8796216_2 -8796216_1 397303086 397303083 50568411_1 589533495_1 589533495_2 -589533495_2 -589533495_1 -50568411_1 -397303083 -397303086 8796216_1 8796216_2 484878996_1 484878996_2 8797259_1 8797259_5 8797259_6"/>
    </vehicle>
    <vehicle id="4536" depart="100.00" departPos="random" departSpeed="max">
        <route edges="-484878996_5 -484878996_2 -484878996_1 -8796216_2 -8796216_1 -397303084_2 -397303084_1 -397303085 397303085 397303084_1 -397303084_1 -397303085 -8796601 45270121_2 45270121_3 330310753_1 59432574 -8796601 45270121_2 45270121_3 -45270121_3 -45270121_2 8796601 397303085 397303084_1 397303084_2 397303086 397303083 50568411_1 44465157 589533494 125568090 -589533495_2 -589533495_1 -50568411_1 -397303083 -397303086 8796216_1 -8796216_1 -397303084_2 -397303084_1 -397303085 374711603 777809605_2 468422740 686997726 468422741 468421253 468421254 468421252 8797819_1 8797819_2"/>
    </vehicle>
    <vehicle id="5022" depart="111.00" departPos="random" departSpeed="max">
        <route edges="719395506_7 719395506_3 719395506_4 50575480_2 330310753_1 59432574 374711603 777809605_2 468422740 686997726 468422741 468421253 468421254 468421252 8797819_1 8797819_2 8797819_3 8797399_2 40802860 8797819_3 8797399_2 8797399_3 -589533495_2 -589533495_1 -50568411_1 -397303083 -397303086 8796216_1 8796216_2 -330310713_2 8796076_1 8796076_3 8797131_9 -484878996_4 -484878996_3 -484878996_5 -484878996_2 -484878996_1 -8796216_2 -8796216_1 -397303084_2 -397303084_1 -397303085 -8796601 45270121_2 -45270121_2 8796601 38015401 330310713_1 330310713_3 330310713_2 -330310713_2 8796076_1 8796076_3"/>
    </vehicle>
    <vehicle id="5361" depart="119.00" departPos="random" departSpeed="max">
        <route edges="589533495_2 -589533495_2 -589533495_1 -50568411_1 -397303083 -397303086 8796216_1 8796216_2 484878996_1 484878996_2 484878996_5 484878996_3 -484878996_3 -484878996_5 -484878996_2 -484878996_1 -8796216_2 -8796216_1 -397303084_2 -397303084_1 -397303085 374711603 777809605_2 468422740 686997726 468422741 468421253 468421254 468421252 8797819_1 468421256_1 468421256_2 468421255 589533491 752702309 125568090 -589533495_2 -589533495_1 -50568411_1 -397303083 -397303086 8796216_1 8796216_2 484878996_1 484878996_2 484878996_5 484878996_3 484878996_4 8797554_1 8797554_4 -8797554_4 -8797554_1 -484878996_4 -484878996_3 -484878996_5 -484878996_2 -484878996_1 -8796216_2 -8796216_1 -397303084_2 -397303084_1 -397303085 374711603 777809605_2 468422740 686997726 468422741 468421253 468421254 468421252 8797819_1 8797819_2 8797819_3 8797399_2 8797399_3 -589533495_2 -589533495_1 -50568411_1 -397303083 -397303086 8796216_1 8796216_2 484878996_1 484878996_2 8797259_1 8797259_5 8797259_6"/>
    </vehicle>
    <vehicle id="5504" depart="122.00" departPos="random" departSpeed="max">
        <route edges="8796806_2 8797090_2 8797090_3 8797090_4 719395506_11 719395506_10 719395506_8 719395506_7 719395506_3 719395506_4 50575480_2 -45270121_3 -45270121_2 8796601 397303085 397303084_1 397303084_2 397303086 397303083 50568411_1 589533495_1 589533495_2 -589533495_2 -589533495_1 44465157 589533494 125568090 -589533495_2 -589533495_1 44465157 589533494"/>
    </vehicle>
    <vehicle id="5553" depart="123.00" departPos="random" departSpeed="max">
        <route edges="589533498 468422742 590645027 468421268 -8796601 45270121_2 -45270121_2 8796601 38015401 330310713_1 330310713_3 330310713_2 484878996_1 484878996_2 484878996_5 484878996_3 -484878996_3 -484878996_5 -484878996_2 -484878996_1 -8796216_2 -8796216_1 -397303084_2 -397303084_1 -397303085 397303085 397303084_1 -397303084_1 -397303085 -8796601 8796601 38015401 330310713_1 330310713_3 330310713_2 484878996_1 484878996_2 484878996_5 484878996_3 484878996_4 8797554_1 8797554_4 -8797554_4 -8797554_1 -484878996_4 -484878996_3 -484878996_5 -484878996_2 -484878996_1 -8796216_2 -8796216_1 397303086 397303083 50568411_1 44465157 589533490 589533498 468422742 590645027"/>
    </vehicle>
    <vehicle id="5612" depart="124.00" departPos="random" departSpeed="max">
        <route edges="8796353_3 8795651_2 8795651_3 719395506_10 719395506_8 719395506_7 719395506_3 719395506_4 50575480_2 330310753_1 330310753_2 330310713_1 330310713_3 330310713_2 -330310713_2 330310713_2 -8796216_2 -8796216_1 -397303084_2 -397303084_1 -397303085 374711603 777809605_2 468422740 686997726 468422741 468421253 468421254 468421252 8797819_1 468421256_1 468421256_2 468421255 589533491 752702309 125568090 -589533495_2 -589533495_1 -50568411_1 -397303083 -397303086 8796216_1 8796216_2 484878996_1 484878996_2 484878996_5 484878996_3 484878996_4 8797554_1 8797554_4 8797554_3 -8797554_3 -8797554_4 -8797554_1 -484878996_4 -484878996_3 -484878996_5 -484878996_2 -484878996_1 -8796216_2 -8796216_1 397303086 -397303086 -397303084_2 -397303084_1 -397303085 397303085 397303084_1"/>
    </vehicle>
    <vehicle id="6085" depart="135.00" departPos="random" departSpeed="max">
        <route edges="621527175_11 719026490_1 565167440 564768404_2 719395506_1 719395506_9 719395506_5 719395506_11 719395506_10 719395506_8 719395506_7 -156723058 156723058 -156723058 8796353_3 8795651_2 8795651_3 8795651_4 621527175_9 8797131_1 206857465_1 771992002 206857465_3 621527175_8 621527175_10 621527175_11 719026490_1 565167440 564768404_2 719395506_1 719395506_9 719395506_5 719395506_11 719395506_10 719395506_8 719395506_7 719395506_3 719395506_4 50575480_2 330310753_1 330310753_2 330310713_1 330310713_3 330310713_2 484878996_1 -484878996_1 -8796216_2 8796216_2 -8796216_2 -8796216_1 397303086 397303083 50568411_1 -50568411_1 -397303083 468421275"/>
    </vehicle>
    <vehicle id="6384" depart="141.00" departPos="random" departSpeed="max">
        <route edges="565167472_2 778910124 28317285_3 719395506_1 719395506_9 719395506_5 719395506_11 719395506_10 719395506_8 719395506_7 -156723058 -8796353_5 8796353_5 156723058 719395506_3 719395506_4 50575480_2 330310753_1 330310753_2 330310713_1 330310713_3 8796076_1 -8796076_1 330310713_2 -8796216_2 -8796216_1 -397303084_2 -397303084_1 -397303085 374711603 777809605_2 468422740 686997726 468422741 468421253 468421254 468421252 8797819_1 468421256_1 468421256_2 468421255 589533491 752702309 125568090 -589533495_2 -589533495_1 -50568411_1 -397303083 -397303086 8796216_1 8796216_2 484878996_1 484878996_2 484878996_5 -484878996_5 -484878996_2 -484878996_1 -8796216_2 -8796216_1 -397303084_2 -397303084_1 -397303085 -8796601 45270121_2 45270121_3 330310753_1 330310753_2 330310713_1"/>
    </vehicle>
    <vehicle id="6826" depart="151.00" departPos="random" departSpeed="max">
        <route edges="778910124 28317285_3 719395506_1 719395506_9 269095741 621527175_3 621527175_8 621527175_10 621527175_11 719026490_1 565167440 564768404_2 719395506_1 719395506_9 719395506_5 719395506_11 719395506_10 719395506_8 719395506_7 719395506_3 719395506_4 50575480_2 330310753_1 59432574 374711603 777809605_2 468422740 686997726 468422741 468421253 468421254 468421252 8797819_1 468421256_1 468421256_2 468421255 589533491 752702309 125568090 -589533495_2 -589533495_1 -50568411_1 -397303083 -397303086 -397303084_2 -397303084_1 -397303085 -8796601 45270121_2 45270121_3 330310753_1 59432574 397303085 397303084_1 397303084_2 397303086 397303083 50568411_1 589533495_1 589533495_2"/>
    </vehicle>
    <vehicle id="6915" depart="153.00" departPos="random" departSpeed="max">
        <route edges="719395506_4 50575480_2 330310753_1 330310753_2 330310713_1 330310713_3 330310713_2 -330310713_2 330310713_2 -8796216_2 -8796216_1 -397303084_2 -397303084_1 -397303085 374711603 777809605_2 468422740 686997726 468422741 468421253 468421254 468421252 8797819_1 468421256_1 468421256_2 468421255 589533491 752702309 125568090 -589533495_2 -589533495_1 44465157 589533490 589533498 468422742 590645027 468421268 397303085 397303084_1 -397303084_1 -397303085 374711603 777809605_2 468422740 686997726 589533491 752702309 125568090 -589533495_2 -589533495_1 -50568411_1 -397303083 -397303086 8796216_1 8796216_2 -330310713_2 330310713_2"/>
    </vehicle>
    <vehicle id="7028" depart="156.00" departPos="random" departSpeed="max">
        <route edges="397303084_2 397303086 397303083 50568411_1 44465157 589533490 589533498 468422742 590645027 468421268 374711603 777809605_2 468422740 686997726 468422741 468421253 468421254 468421252 8797819_1 468421256_1 468421256_2 468421255 589533491 752702309 125568090 -589533495_2 -589533495_1 -50568411_1 -397303083 -397303086 -397303084_2 -397303084_1 -397303085 -8796601 8796601 397303085 397303084_1 397303084_2 397303086 397303083 50568411_1 -50568411_1 -397303083 -397303086 8796216_1 8796216_2 484878996_1 484878996_2 484878996_5 484878996_3 484878996_4 8797131_3 8797131_4 8797131_7 8797131_8"/>
    </vehicle>
    <vehicle id="7104" depart="157.00" departPos="random" departSpeed="max">
        <route edges="719395506_8 719395506_7 -156723058 8796353_3 -8796353_3 8796353_3 8795651_2 8795651_3 8795651_4 621527175_9 8797131_1 206857465_1 206857465_2 206857465_3 621527175_8 621527175_10 621527175_11 719026490_1 565167440 564768404_2 719395506_1 719395506_9 719395506_5 719395506_11 719395506_10 719395506_8 719395506_7 -156723058 8796353_3 8795651_2 8795651_3 8795651_4 621527175_9 621527175_2 621527175_3 621527175_8 621527175_10 621527175_11 719026490_1 565167440 564768404_2 719395506_1 719395506_9 719395506_5 719395506_11 719395506_10 719395506_8 719395506_7 719395506_3 719395506_4 50575480_2 330310753_1"/>
    </vehicle>
    <vehicle id="7395" depart="164.00" departPos="random" departSpeed="max">
        <route edges="361085970 361085968_2 -190641518_1 719026490_1 565167440 564768404_2 719395506_1 719395506_9 719395506_5 719395506_11 719395506_10 719395506_8 719395506_7 719395506_3 719395506_4 50575480_2 330310753_1 59432574 397303085 397303084_1 397303084_2 397303086 397303083 50568411_1 44465157 589533490 589533498 468422742 590645027 468421268 374711603 777809605_2 468422740 686997726 468422741 468421253 468421254 468421252 8797819_1 468421256_1 468421256_2 468421255 589533491 752702309 125568090 -589533495_2 -589533495_1 -50568411_1 -397303083 -397303086 -397303084_2 -397303084_1 -397303085 -8796601 45270121_2 45270121_3 330310753_1 59432574 -8796601 45270121_2 45270121_3 -45270121_3 45270121_3 330310753_1 330310753_2 330310713_1 330310713_3 330310713_2 484878996_1 484878996_2 484878996_5 484878996_3 484878996_4 8797554_1 45330151_1"/>
    </vehicle>
    <vehicle id="7575" depart="168.00" departPos="random" departSpeed="max">
        <route edges="565167469_2 719395505_3 719026490_1 565167440 564768404_2 719395506_1 719395506_9 719395506_5 719395506_11 719395506_10 719395506_8 719395506_7 -156723058 -8796353_5 -8796353_7 8796353_7 8796353_5 156723058 719395506_3 719395506_4 50575480_2 330310753_1 59432574 397303085 397303084_1 397303084_2 397303086 -397303086 -397303084_2 -397303084_1 -397303085 -8796601 45270121_2 45270121_3 -8795503_3 8795503_3 330310753_1 59432574 374711603 777809605_2 468422740 686997726 589533491 752702309 125568090 -589533495_2 -589533495_1 -50568411_1 -397303083 -397303086 8796216_1 8796216_2 -330310713_2 -330310713_3"/>
    </vehicle>
    <vehicle id="7696" depart="171.00" departPos="random" departSpeed="max">
        <route edges="719395506_7 -156723058 8796353_3 8795651_2 8795651_3 8795651_4 621527175_9 621527175_2 621527175_3 621527175_8 621527175_10 621527175_11 719026490_1 565167440 564768404_2 719395506_1 719395506_9 719395506_5 719395506_11 719395506_10 719395506_8 719395506_7 -156723058 -8796353_5 -8796353_7 -8796353_6 8796353_6 8796353_7 8796353_5 156723058 719395506_3 719395506_4 50575480_2 330310753_1 330310753_2 330310713_1 330310713_3 330310713_2 484878996_1 484878996_2 -484878996_2 -484878996_1 -8796216_2 -8796216_1 -397303084_2 -397303084_1 -397303085 374711603 777809605_2 468422740 686997726 589533491 752702309 125568090 -589533495_2 -589533495_1 -50568411_1 -397303083 -397303086 -397303084_2 -397303084_1 -397303085 374711603 777809605_2 468422740 686997726 468422741 468421253 468421254 468421252 8797819_1 8797819_2 8797819_3 8797399_2 40802860"/>
    </vehicle>
    <vehicle id="8389" depart="186.00" departPos="random" departSpeed="max">