<?xml version="1.0" encoding="UTF-8"?>

<!-- generated on Thu Jul 22 12:24:45 2021 by SUMO netconvert Version 0.30.0
<?xml version="1.0" encoding="UTF-8"?>

<configuration xmlns:xsi="http://www.w3.org/2001/XMLSchema-instance" xsi:noNamespaceSchemaLocation="http://sumo.dlr.de/xsd/netconvertConfiguration.xsd">

    <input>
        <node-files value="sumo.nod.xml"/>
        <edge-files value="sumo.edg.xml"/>
    </input>

    <output>
        <output-file value="sumo.net.xml"/>
    </output>

</configuration>
-->

<net version="0.27" xmlns:xsi="http://www.w3.org/2001/XMLSchema-instance" xsi:noNamespaceSchemaLocation="http://sumo.dlr.de/xsd/net_file.xsd">

    <location netOffset="481.96,612.01" convBoundary="0.00,0.00,999.71,1180.29" origBoundary="-481.96,-612.01,517.74,568.29" projParameter="!"/>

    <edge id=":1057847670_0" function="internal">
        <lane id=":1057847670_0_0" index="0" speed="13.90" length="8.00" width="4.00" shape="790.31,1023.05 787.17,1030.41"/>
    </edge>
    <edge id=":1057847670_1" function="internal">
        <lane id=":1057847670_1_0" index="0" speed="13.90" length="2.04" width="4.00" shape="785.53,1024.30 786.91,1025.45 787.02,1025.67"/>
    </edge>
    <edge id=":1057847670_2" function="internal">
        <lane id=":1057847670_2_0" index="0" speed="13.90" length="4.98" width="4.00" shape="787.02,1025.67 787.64,1026.85 787.73,1028.50 787.17,1030.41"/>
    </edge>
    <edge id=":1422600187_0" function="internal">
        <lane id=":1422600187_0_0" index="0" speed="13.90" length="7.03" width="4.00" shape="614.31,987.71 613.39,986.12 612.17,984.98 610.64,984.30 608.81,984.09"/>
    </edge>
    <edge id=":1422600187_1" function="internal">
        <lane id=":1422600187_1_0" index="0" speed="13.90" length="7.96" width="4.00" shape="616.55,982.58 614.35,983.42 612.78,983.87 611.17,984.04 608.81,984.09"/>
    </edge>
    <edge id=":1422600205_0" function="internal">
        <lane id=":1422600205_0_0" index="0" speed="13.90" length="5.79" width="4.00" shape="578.87,1032.76 578.84,1034.42 579.38,1035.53 580.48,1036.08 582.14,1036.08"/>
    </edge>
    <edge id=":1422600205_1" function="internal">
        <lane id=":1422600205_1_0" index="0" speed="13.90" length="8.00" width="4.00" shape="578.87,1032.76 578.49,1035.10 578.16,1036.70 577.73,1038.26 577.02,1040.53"/>
    </edge>
    <edge id=":1422600216_0" function="internal">
        <lane id=":1422600216_0_0" index="0" speed="13.90" length="6.50" width="4.00" shape="651.65,1152.52 652.57,1154.06 652.77,1155.51 652.25,1156.88 651.02,1158.17"/>
    </edge>
    <edge id=":1422601301_0" function="internal">
        <lane id=":1422601301_0_0" index="0" speed="13.90" length="7.99" width="4.00" shape="678.23,1027.35 678.78,1029.66 679.19,1031.23 679.68,1032.77 680.46,1035.01"/>
    </edge>
    <edge id=":1422601301_1" function="internal">
        <lane id=":1422601301_1_0" index="0" speed="13.90" length="6.67" width="4.00" shape="678.23,1027.35 678.39,1029.15 677.96,1030.61 676.93,1031.75 675.31,1032.54"/>
    </edge>
    <edge id=":1422601312_0" function="internal">
        <lane id=":1422601312_0_0" index="0" speed="13.90" length="7.94" width="4.00" shape="701.50,1069.68 699.43,1069.76 697.61,1070.34 696.03,1071.41 694.69,1072.97"/>
    </edge>
    <edge id=":1422601312_1" function="internal">
        <lane id=":1422601312_1_0" index="0" speed="13.90" length="2.17" width="4.00" shape="695.71,1066.81 696.18,1068.14 696.17,1068.89"/>
    </edge>
    <edge id=":1422601312_2" function="internal">
        <lane id=":1422601312_2_0" index="0" speed="13.90" length="4.40" width="4.00" shape="696.17,1068.89 696.16,1069.61 695.67,1071.22 694.69,1072.97"/>
    </edge>
    <edge id=":1422601313_0" function="internal">
        <lane id=":1422601313_0_0" index="0" speed="13.90" length="6.77" width="4.00" shape="678.74,1001.92 677.18,1002.83 676.15,1004.03 675.67,1005.54 675.73,1007.34"/>
    </edge>
    <edge id=":1422601313_1" function="internal">
        <lane id=":1422601313_1_0" index="0" speed="13.90" length="7.31" width="4.00" shape="678.74,1001.92 676.91,1002.44 675.15,1002.45 673.47,1001.96 671.85,1000.96"/>
    </edge>
    <edge id=":1422617306_0" function="internal">
        <lane id=":1422617306_0_0" index="0" speed="13.90" length="3.96" width="4.00" shape="509.55,1082.61 510.33,1083.79 510.65,1084.75 510.50,1085.48 509.90,1085.98"/>
    </edge>
    <edge id=":1422617307_0" function="internal">
        <lane id=":1422617307_0_0" index="0" speed="13.90" length="8.35" width="4.00" shape="503.39,1089.06 501.14,1090.09 499.55,1090.70 497.90,1091.11 495.46,1091.57"/>
    </edge>
    <edge id=":1422617307_1" function="internal">
        <lane id=":1422617307_1_0" index="0" speed="13.90" length="6.90" width="3.50" shape="503.39,1089.06 500.91,1089.97 498.85,1090.18 497.19,1089.68 495.93,1088.48"/>
        <lane id=":1422617307_1_1" index="1" speed="13.90" length="6.90" width="3.50" shape="503.39,1089.06 502.34,1089.26 501.24,1088.89 500.10,1087.96 498.91,1086.46"/>
    </edge>
    <edge id=":1637316080_0" function="internal">
        <lane id=":1637316080_0_0" index="0" speed="13.90" length="5.46" width="3.50" shape="636.03,461.28 635.04,461.45 634.18,462.16 633.46,463.42 632.86,465.21"/>
    </edge>
    <edge id=":1637316080_1" function="internal">
        <lane id=":1637316080_1_0" index="0" speed="13.90" length="8.07" width="4.00" shape="636.03,461.28 628.00,460.52"/>
    </edge>
    <edge id=":1637316080_2" function="internal">
        <lane id=":1637316080_2_0" index="0" speed="13.90" length="8.00" width="3.50" shape="634.86,457.47 632.86,465.21"/>
        <lane id=":1637316080_2_1" index="1" speed="13.90" length="8.00" width="3.50" shape="631.38,456.56 629.37,464.31"/>
    </edge>
    <edge id=":1637316080_4" function="internal">
        <lane id=":1637316080_4_0" index="0" speed="13.90" length="5.64" width="4.00" shape="631.38,456.56 630.76,458.38 629.99,459.64 629.07,460.36 628.00,460.52"/>
    </edge>
    <edge id=":1689414009_0" function="internal">
        <lane id=":1689414009_0_0" index="0" speed="13.90" length="3.81" width="4.00" shape="919.34,410.61 919.51,409.54 919.27,408.76 918.63,408.25 917.57,408.02"/>
    </edge>
    <edge id=":1689414026_0" function="internal">
        <lane id=":1689414026_0_0" index="0" speed="13.90" length="5.89" width="4.00" shape="895.68,484.84 896.04,483.20 895.73,481.97 894.77,481.15 893.14,480.74"/>
    </edge>
    <edge id=":1689414026_1" function="internal">
        <lane id=":1689414026_1_0" index="0" speed="13.90" length="8.00" width="4.00" shape="895.68,484.84 898.33,477.30"/>
    </edge>
    <edge id=":1689414098_0" function="internal">
        <lane id=":1689414098_0_0" index="0" speed="13.90" length="4.88" width="4.00" shape="710.96,466.81 710.09,467.00 709.43,467.70 708.98,468.92 708.73,470.64"/>
    </edge>
    <edge id=":1689414098_1" function="internal">
        <lane id=":1689414098_1_0" index="0" speed="13.90" length="8.00" width="4.00" shape="710.96,466.81 702.97,466.26"/>
    </edge>
    <edge id=":1689414098_2" function="internal">
        <lane id=":1689414098_2_0" index="0" speed="13.90" length="4.88" width="4.00" shape="704.64,470.35 704.64,468.62 704.36,467.35 703.81,466.57 702.97,466.26"/>
    </edge>
    <edge id=":1689414098_3" function="internal">
        <lane id=":1689414098_3_0" index="0" speed="13.90" length="3.20" width="4.00" shape="704.64,470.35 705.77,468.89 706.83,468.45 707.01,468.55"/>
    </edge>
    <edge id=":1689414098_4" function="internal">
        <lane id=":1689414098_4_0" index="0" speed="13.90" length="2.79" width="4.00" shape="707.01,468.55 707.82,469.03 708.73,470.64"/>
    </edge>
    <edge id=":1689414101_0" function="internal">
        <lane id=":1689414101_0_0" index="0" speed="13.90" length="10.96" width="4.00" shape="703.27,548.28 702.63,559.22"/>
    </edge>
    <edge id=":1689414101_1" function="internal">
        <lane id=":1689414101_1_0" index="0" speed="13.90" length="5.00" width="4.00" shape="703.27,548.28 702.53,550.86 700.92,552.52"/>
    </edge>
    <edge id=":1689414101_2" function="internal">
        <lane id=":1689414101_2_0" index="0" speed="13.90" length="2.99" width="4.00" shape="703.27,548.28 702.14,549.74 701.08,550.18"/>
    </edge>
    <edge id=":1689414101_9" function="internal">
        <lane id=":1689414101_9_0" index="0" speed="13.90" length="7.27" width="4.00" shape="700.92,552.52 700.74,552.71 697.88,553.84 693.96,554.25"/>
    </edge>
    <edge id=":1689414101_10" function="internal">
        <lane id=":1689414101_10_0" index="0" speed="13.90" length="2.99" width="4.00" shape="701.08,550.18 700.09,549.60 699.18,547.99"/>
    </edge>
    <edge id=":1689414101_3" function="internal">
        <lane id=":1689414101_3_0" index="0" speed="13.90" length="6.12" width="4.00" shape="693.92,550.15 696.17,549.98 697.79,549.56 698.80,548.90 699.18,547.99"/>
    </edge>
    <edge id=":1689414101_4" function="internal">
        <lane id=":1689414101_4_0" index="0" speed="13.90" length="14.58" width="4.00" shape="693.92,550.15 697.91,550.65 700.69,552.33 702.27,555.19 702.63,559.22"/>
    </edge>
    <edge id=":1689414101_5" function="internal">
        <lane id=":1689414101_5_0" index="0" speed="13.90" length="5.99" width="4.00" shape="693.92,550.15 695.47,551.16 695.99,552.18 695.49,553.21 693.96,554.25"/>
    </edge>
    <edge id=":1689414101_6" function="internal">
        <lane id=":1689414101_6_0" index="0" speed="13.90" length="7.64" width="4.00" shape="698.54,559.01 698.34,556.91 697.52,555.41 696.06,554.53 693.96,554.25"/>
    </edge>
    <edge id=":1689414101_7" function="internal">
        <lane id=":1689414101_7_0" index="0" speed="13.90" length="11.04" width="4.00" shape="698.54,559.01 699.18,547.99"/>
    </edge>
    <edge id=":1689414101_8" function="internal">
        <lane id=":1689414101_8_0" index="0" speed="13.90" length="2.99" width="4.00" shape="698.54,559.01 699.64,557.53 700.69,557.07"/>
    </edge>
    <edge id=":1689414101_11" function="internal">
        <lane id=":1689414101_11_0" index="0" speed="13.90" length="2.99" width="4.00" shape="700.69,557.07 701.69,557.64 702.63,559.22"/>
    </edge>
    <edge id=":1689414109_0" function="internal">
        <lane id=":1689414109_0_0" index="0" speed="13.90" length="22.20" width="4.00" shape="691.74,875.77 698.79,878.15 704.57,879.67 709.33,880.30 713.31,879.97"/>
    </edge>
    <edge id=":1689414109_1" function="internal">
        <lane id=":1689414109_1_0" index="0" speed="13.90" length="23.25" width="3.50" shape="690.53,879.16 697.30,881.16 702.31,881.96 707.08,882.54 713.14,883.90"/>
        <lane id=":1689414109_1_1" index="1" speed="13.90" length="23.25" width="3.50" shape="689.32,882.55 696.16,884.57 701.23,885.39 706.05,885.99 712.12,887.35"/>
    </edge>
    <edge id=":1689414122_0" function="internal">
        <lane id=":1689414122_0_0" index="0" speed="13.90" length="5.99" width="4.00" shape="681.05,713.67 682.90,713.62 683.91,714.16 684.08,715.29 683.42,717.01"/>
    </edge>
    <edge id=":1689414224_0" function="internal">
        <lane id=":1689414224_0_0" index="0" speed="13.90" length="6.67" width="3.50" shape="618.74,549.01 616.33,549.03 614.54,549.36 613.36,550.00 612.79,550.94"/>
    </edge>
    <edge id=":1689414224_1" function="internal">
        <lane id=":1689414224_1_0" index="0" speed="13.90" length="5.99" width="4.00" shape="618.74,549.01 617.25,547.91 616.79,546.86 617.36,545.86 618.94,544.92"/>
    </edge>
    <edge id=":1689414224_2" function="internal">
        <lane id=":1689414224_2_0" index="0" speed="13.90" length="7.13" width="4.00" shape="615.25,540.21 615.10,542.18 615.67,543.62 616.95,544.53 618.94,544.92"/>
    </edge>
    <edge id=":1689414224_3" function="internal">
        <lane id=":1689414224_3_0" index="0" speed="13.90" length="11.00" width="3.50" shape="615.25,540.21 612.79,550.94"/>
        <lane id=":1689414224_3_1" index="1" speed="13.90" length="11.00" width="3.50" shape="611.74,539.41 609.29,550.12"/>
    </edge>
    <edge id=":1689414249_0" function="internal">
        <lane id=":1689414249_0_0" index="0" speed="13.90" length="13.99" width="3.50" shape="597.27,616.04 594.96,629.71"/>
        <lane id=":1689414249_0_1" index="1" speed="13.90" length="13.99" width="3.50" shape="593.77,615.20 591.41,629.13"/>
    </edge>
    <edge id=":1689414290_0" function="internal">
        <lane id=":1689414290_0_0" index="0" speed="13.90" length="6.59" width="3.50" shape="582.73,713.12 580.32,713.03 578.52,713.27 577.35,713.84 576.78,714.73"/>
    </edge>
    <edge id=":1689414290_1" function="internal">
        <lane id=":1689414290_1_0" index="0" speed="13.90" length="11.26" width="4.00" shape="582.73,713.12 579.65,712.52 577.35,711.60 575.06,710.63 571.99,709.88"/>
    </edge>
    <edge id=":1689414290_2" function="internal">
        <lane id=":1689414290_2_0" index="0" speed="13.90" length="5.99" width="4.00" shape="582.73,713.12 581.30,711.96 580.88,710.89 581.49,709.92 583.12,709.04"/>
    </edge>
    <edge id=":1689414290_3" function="internal">
        <lane id=":1689414290_3_0" index="0" speed="13.90" length="7.32" width="4.00" shape="579.43,704.06 579.25,706.07 579.81,707.57 581.10,708.56 583.12,709.04"/>
    </edge>
    <edge id=":1689414290_4" function="internal">
        <lane id=":1689414290_4_0" index="0" speed="13.90" length="11.00" width="3.50" shape="579.43,704.06 576.78,714.73"/>
    </edge>
    <edge id=":1689414290_5" function="internal">
        <lane id=":1689414290_5_0" index="0" speed="13.90" length="5.69" width="4.00" shape="575.92,703.22 575.05,706.26 574.11,708.38 573.98,708.54"/>
    </edge>
    <edge id=":1689414290_9" function="internal">
        <lane id=":1689414290_9_0" index="0" speed="13.90" length="2.51" width="4.00" shape="573.98,708.54 573.09,709.59 571.99,709.88"/>
    </edge>
    <edge id=":1689414290_6" function="internal">
        <lane id=":1689414290_6_0" index="0" speed="13.90" length="4.80" width="4.00" shape="573.28,713.90 573.53,712.26 573.40,711.05 572.89,710.25 571.99,709.88"/>
    </edge>
    <edge id=":1689414290_7" function="internal">
        <lane id=":1689414290_7_0" index="0" speed="13.90" length="4.90" width="4.00" shape="573.28,713.90 574.40,711.48 576.13,710.08"/>
    </edge>
    <edge id=":1689414290_8" function="internal">
        <lane id=":1689414290_8_0" index="0" speed="13.90" length="2.63" width="3.50" shape="573.28,713.90 574.47,712.80 575.45,712.57"/>
    </edge>
    <edge id=":1689414290_10" function="internal">
        <lane id=":1689414290_10_0" index="0" speed="13.90" length="7.18" width="4.00" shape="576.13,710.08 576.41,709.86 579.32,709.04 583.12,709.04"/>
    </edge>
    <edge id=":1689414290_11" function="internal">
        <lane id=":1689414290_11_0" index="0" speed="13.90" length="2.63" width="3.50" shape="575.45,712.57 576.22,713.21 576.78,714.73"/>
    </edge>
    <edge id=":1689414301_0" function="internal">
        <lane id=":1689414301_0_0" index="0" speed="13.90" length="13.63" width="4.00" shape="570.19,795.24 568.70,792.07 566.78,789.44 564.48,787.07 561.83,784.69"/>
    </edge>
    <edge id=":1689414301_1" function="internal">
        <lane id=":1689414301_1_0" index="0" speed="13.90" length="14.88" width="3.50" shape="570.19,795.24 569.34,791.65 569.12,787.96 569.17,784.22 569.17,780.47"/>
    </edge>
    <edge id=":1689414301_2" function="internal">
        <lane id=":1689414301_2_0" index="0" speed="13.90" length="2.91" width="3.50" shape="570.19,795.24 570.56,793.66 571.24,792.92 571.52,792.95"/>
    </edge>
    <edge id=":1689414301_9" function="internal">
        <lane id=":1689414301_9_0" index="0" speed="13.90" length="2.35" width="3.50" shape="571.52,792.95 572.24,793.02 573.56,793.97"/>
    </edge>
    <edge id=":1689414301_3" function="internal">
        <lane id=":1689414301_3_0" index="0" speed="13.90" length="13.66" width="3.50" shape="572.77,780.41 572.74,783.97 572.60,787.30 572.75,790.57 573.56,793.97"/>
    </edge>
    <edge id=":1689414301_4" function="internal">
        <lane id=":1689414301_4_0" index="0" speed="13.90" length="8.07" width="4.00" shape="572.77,780.41 572.30,786.09 570.87,787.97"/>
    </edge>
    <edge id=":1689414301_5" function="internal">
        <lane id=":1689414301_5_0" index="0" speed="13.90" length="2.63" width="3.50" shape="572.77,780.41 571.89,781.77 571.00,782.24"/>
    </edge>
    <edge id=":1689414301_10" function="internal">
        <lane id=":1689414301_10_0" index="0" speed="13.90" length="10.56" width="4.00" shape="570.87,787.97 570.32,788.70 566.83,788.23 561.83,784.69"/>
    </edge>
    <edge id=":1689414301_11" function="internal">
        <lane id=":1689414301_11_0" index="0" speed="13.90" length="2.63" width="3.50" shape="571.00,782.24 570.09,781.80 569.17,780.47"/>
    </edge>
    <edge id=":1689414301_6" function="internal">
        <lane id=":1689414301_6_0" index="0" speed="13.90" length="7.31" width="3.50" shape="564.70,781.76 566.74,783.22 568.16,783.50 568.97,782.58 569.17,780.47"/>
    </edge>
    <edge id=":1689414301_7" function="internal">
        <lane id=":1689414301_7_0" index="0" speed="13.90" length="15.23" width="3.50" shape="564.70,781.76 567.43,784.40 569.90,787.34 571.99,790.54 573.56,793.97"/>
    </edge>
    <edge id=":1689414301_8" function="internal">
        <lane id=":1689414301_8_0" index="0" speed="13.90" length="6.00" width="4.00" shape="564.70,781.76 565.08,783.57 564.73,784.66 563.64,785.03 561.83,784.69"/>
    </edge>
    <edge id=":1689414330_0" function="internal">
        <lane id=":1689414330_0_0" index="0" speed="13.90" length="5.19" width="3.50" shape="530.75,451.34 529.77,451.00 529.13,450.18 528.82,448.88 528.85,447.10"/>
    </edge>
    <edge id=":1689414330_1" function="internal">
        <lane id=":1689414330_1_0" index="0" speed="13.90" length="7.99" width="3.50" shape="524.16,454.50 524.59,452.21 524.84,450.64 525.03,449.06 525.27,446.75"/>
        <lane id=":1689414330_1_1" index="1" speed="13.90" length="7.99" width="3.50" shape="527.70,455.16 528.14,452.78 528.41,451.15 528.61,449.51 528.85,447.10"/>
    </edge>
    <edge id=":1689414563_0" function="internal">
        <lane id=":1689414563_0_0" index="0" speed="13.90" length="8.00" width="4.00" shape="247.81,1085.62 247.30,1077.64"/>
    </edge>
    <edge id=":1689414563_1" function="internal">
        <lane id=":1689414563_1_0" index="0" speed="13.90" length="2.05" width="4.00" shape="251.52,1081.92 249.74,1081.56 249.54,1081.44"/>
    </edge>
    <edge id=":1689414563_2" function="internal">
        <lane id=":1689414563_2_0" index="0" speed="13.90" length="4.66" width="4.00" shape="249.54,1081.44 248.45,1080.73 247.63,1079.42 247.30,1077.64"/>
    </edge>
    <edge id=":1689414566_0" function="internal">
        <lane id=":1689414566_0_0" index="0" speed="13.90" length="8.00" width="4.00" shape="246.86,1068.01 246.33,1060.03"/>
    </edge>
    <edge id=":1689414566_1" function="internal">
        <lane id=":1689414566_1_0" index="0" speed="13.90" length="6.40" width="4.00" shape="246.86,1068.01 247.04,1066.24 247.74,1065.00 248.97,1064.28 250.73,1064.09"/>
    </edge>
    <edge id=":1689414568_0" function="internal">
        <lane id=":1689414568_0_0" index="0" speed="13.90" length="7.90" width="3.50" shape="238.80,974.71 238.28,974.08 236.85,973.65 234.51,973.40 231.27,973.34"/>
    </edge>
    <edge id=":1689414568_1" function="internal">
        <lane id=":1689414568_1_0" index="0" speed="13.90" length="14.40" width="4.00" shape="238.80,974.71 238.16,971.12 237.18,967.70 236.21,964.28 235.61,960.68"/>
    </edge>
    <edge id=":1689414568_2" function="internal">
        <lane id=":1689414568_2_0" index="0" speed="13.90" length="11.00" width="3.50" shape="242.19,973.29 231.27,973.34"/>
        <lane id=":1689414568_2_1" index="1" speed="13.90" length="11.00" width="3.50" shape="242.21,969.69 231.24,969.74"/>
        <lane id=":1689414568_2_2" index="2" speed="13.90" length="11.00" width="3.50" shape="242.22,966.09 231.20,966.14"/>
        <lane id=":1689414568_2_3" index="3" speed="13.90" length="11.00" width="3.50" shape="242.24,962.49 231.17,962.54"/>
    </edge>
    <edge id=":1689414568_6" function="internal">
        <lane id=":1689414568_6_0" index="0" speed="13.90" length="7.22" width="4.00" shape="242.24,962.49 239.39,962.37 237.34,962.03 236.08,961.46 235.61,960.68"/>
    </edge>
    <edge id=":1689414568_7" function="internal">
        <lane id=":1689414568_7_0" index="0" speed="13.90" length="9.23" width="3.50" shape="239.71,960.45 239.23,961.33 237.65,961.98 234.96,962.38 231.17,962.54"/>
    </edge>
    <edge id=":1689414568_8" function="internal">
        <lane id=":1689414568_8_0" index="0" speed="13.90" length="5.99" width="4.00" shape="239.71,960.45 238.77,962.04 237.77,962.61 236.72,962.16 235.61,960.68"/>
    </edge>
    <edge id=":1917532112_0" function="internal">
        <lane id=":1917532112_0_0" index="0" speed="13.90" length="8.00" width="4.00" shape="414.42,311.85 406.45,311.24"/>
    </edge>
    <edge id=":1917532112_1" function="internal">
        <lane id=":1917532112_1_0" index="0" speed="13.90" length="2.11" width="4.00" shape="410.65,307.49 410.33,309.24 410.14,309.52"/>
    </edge>
    <edge id=":1917532112_2" function="internal">
        <lane id=":1917532112_2_0" index="0" speed="13.90" length="4.36" width="4.00" shape="410.14,309.52 409.52,310.45 408.23,311.12 406.45,311.24"/>
    </edge>
    <edge id=":2166980534_0" function="internal">
        <lane id=":2166980534_0_0" index="0" speed="13.90" length="8.00" width="3.50" shape="609.14,566.63 607.29,574.42"/>
        <lane id=":2166980534_0_1" index="1" speed="13.90" length="8.00" width="3.50" shape="605.63,565.81 603.79,573.58"/>
    </edge>
    <edge id=":2166980534_2" function="internal">
        <lane id=":2166980534_2_0" index="0" speed="13.90" length="4.98" width="4.00" shape="605.63,565.81 605.10,567.43 604.41,568.50 603.56,569.00 602.55,568.93"/>
    </edge>
    <edge id=":2166980540_0" function="internal">
        <lane id=":2166980540_0_0" index="0" speed="13.90" length="8.00" width="3.50" shape="620.60,517.03 618.76,524.78"/>
        <lane id=":2166980540_0_1" index="1" speed="13.90" length="8.00" width="3.50" shape="617.10,516.16 615.25,523.98"/>
    </edge>
    <edge id=":2166980540_2" function="internal">
        <lane id=":2166980540_2_0" index="0" speed="13.90" length="5.35" width="3.50" shape="613.96,519.31 614.87,519.84 615.39,520.79 615.52,522.17 615.25,523.98"/>
    </edge>
    <edge id=":2166980552_0" function="internal">
        <lane id=":2166980552_0_0" index="0" speed="13.90" length="7.99" width="4.00" shape="595.92,566.79 593.67,566.05 592.11,565.59 590.52,565.23 588.20,564.78"/>
    </edge>
    <edge id=":2166980552_1" function="internal">
        <lane id=":2166980552_1_0" index="0" speed="13.90" length="7.16" width="4.00" shape="595.92,566.79 594.22,565.98 592.96,564.83 592.15,563.33 591.76,561.49"/>
    </edge>
    <edge id=":2169050240_0" function="internal">
        <lane id=":2169050240_0_0" index="0" speed="13.90" length="8.00" width="4.00" shape="541.38,321.18 533.42,320.39"/>
    </edge>
    <edge id=":2169050240_1" function="internal">
        <lane id=":2169050240_1_0" index="0" speed="13.90" length="6.11" width="4.00" shape="541.38,321.18 539.70,320.77 538.68,319.93 538.34,318.66 538.67,316.96"/>
    </edge>
    <edge id=":2169050287_0" function="internal">
        <lane id=":2169050287_0_0" index="0" speed="13.90" length="5.08" width="3.50" shape="590.83,242.15 591.78,242.34 592.73,241.98 593.68,241.05 594.65,239.57"/>
    </edge>
    <edge id=":2169050287_1" function="internal">
        <lane id=":2169050287_1_0" index="0" speed="13.90" length="8.00" width="3.50" shape="590.79,246.58 594.65,239.57"/>
        <lane id=":2169050287_1_1" index="1" speed="13.90" length="8.00" width="3.50" shape="593.95,248.31 597.80,241.31"/>
    </edge>
    <edge id=":2178846525_0" function="internal">
        <lane id=":2178846525_0_0" index="0" speed="13.90" length="5.04" width="3.50" shape="575.30,738.90 574.32,739.07 573.58,739.75 573.06,740.94 572.78,742.65"/>
    </edge>
    <edge id=":2178846525_1" function="internal">
        <lane id=":2178846525_1_0" index="0" speed="13.90" length="7.99" width="3.50" shape="575.30,738.90 572.80,738.44 571.05,737.53 570.07,736.18 569.86,734.38"/>
    </edge>
    <edge id=":2178846525_2" function="internal">
        <lane id=":2178846525_2_0" index="0" speed="13.90" length="8.00" width="3.50" shape="573.45,734.68 572.78,742.65"/>
    </edge>
    <edge id=":2178846525_3" function="internal">
        <lane id=":2178846525_3_0" index="0" speed="13.90" length="2.63" width="3.50" shape="573.45,734.68 572.44,735.95 571.50,736.32"/>
    </edge>
    <edge id=":2178846525_6" function="internal">
        <lane id=":2178846525_6_0" index="0" speed="13.90" length="2.63" width="3.50" shape="571.50,736.32 570.64,735.80 569.86,734.38"/>
    </edge>
    <edge id=":2178846525_4" function="internal">
        <lane id=":2178846525_4_0" index="0" speed="13.90" length="8.00" width="3.50" shape="569.19,742.35 569.86,734.38"/>
    </edge>
    <edge id=":2178846525_5" function="internal">
        <lane id=":2178846525_5_0" index="0" speed="13.90" length="2.63" width="3.50" shape="569.19,742.35 570.20,741.08 571.14,740.71"/>
    </edge>
    <edge id=":2178846525_7" function="internal">
        <lane id=":2178846525_7_0" index="0" speed="13.90" length="2.63" width="3.50" shape="571.14,740.71 572.00,741.23 572.78,742.65"/>
    </edge>
    <edge id=":2178846530_0" function="internal">
        <lane id=":2178846530_0_0" index="0" speed="13.90" length="4.76" width="4.00" shape="605.36,715.34 603.69,715.23 602.48,715.44 601.71,715.97 601.40,716.84"/>
    </edge>
    <edge id=":2178846530_1" function="internal">
        <lane id=":2178846530_1_0" index="0" speed="13.90" length="7.87" width="4.00" shape="605.36,715.34 597.54,714.42"/>
    </edge>
    <edge id=":2178846530_2" function="internal">
        <lane id=":2178846530_2_0" index="0" speed="13.90" length="2.99" width="4.00" shape="605.36,715.34 603.99,714.10 603.63,713.02"/>
    </edge>
    <edge id=":2178846530_6" function="internal">
        <lane id=":2178846530_6_0" index="0" speed="13.90" length="2.99" width="4.00" shape="603.63,713.02 604.29,712.08 605.96,711.29"/>
    </edge>
    <edge id=":2178846530_3" function="internal">
        <lane id=":2178846530_3_0" index="0" speed="13.90" length="8.12" width="4.00" shape="597.90,710.34 605.96,711.29"/>
    </edge>
    <edge id=":2178846530_4" function="internal">
        <lane id=":2178846530_4_0" index="0" speed="13.90" length="4.23" width="4.00" shape="597.90,710.34 599.63,710.88 600.79,712.14 600.99,712.82"/>
    </edge>
    <edge id=":2178846530_5" function="internal">
        <lane id=":2178846530_5_0" index="0" speed="13.90" length="3.12" width="4.00" shape="597.90,710.34 599.34,711.49 599.76,712.56 599.70,712.66"/>
    </edge>
    <edge id=":2178846530_7" function="internal">
        <lane id=":2178846530_7_0" index="0" speed="13.90" length="4.08" width="4.00" shape="600.99,712.82 601.38,714.13 601.40,716.84"/>
    </edge>
    <edge id=":2178846530_8" function="internal">
        <lane id=":2178846530_8_0" index="0" speed="13.90" length="2.87" width="4.00" shape="599.70,712.66 599.16,713.54 597.54,714.42"/>
    </edge>
    <edge id=":2563891125_0" function="internal">
        <lane id=":2563891125_0_0" index="0" speed="13.90" length="7.78" width="4.00" shape="571.80,235.09 573.52,236.59 574.88,237.45 576.42,237.88 578.69,238.13"/>
    </edge>
    <edge id=":2563891125_1" function="internal">
        <lane id=":2563891125_1_0" index="0" speed="13.90" length="2.56" width="4.00" shape="572.95,241.43 573.96,239.86 574.49,239.41"/>
    </edge>
    <edge id=":2563891125_2" function="internal">
        <lane id=":2563891125_2_0" index="0" speed="13.90" length="4.54" width="4.00" shape="574.49,239.41 575.25,238.78 576.83,238.21 578.69,238.13"/>
    </edge>
    <edge id=":2743765102_0" function="internal">
        <lane id=":2743765102_0_0" index="0" speed="13.90" length="4.62" width="3.50" shape="577.49,284.80 576.57,284.37 576.13,283.59 576.17,282.46 576.70,280.97"/>
    </edge>
    <edge id=":2743765102_1" function="internal">
        <lane id=":2743765102_1_0" index="0" speed="13.90" length="8.00" width="3.50" shape="570.07,286.72 573.43,279.46"/>
        <lane id=":2743765102_1_1" index="1" speed="13.90" length="8.00" width="3.50" shape="573.34,288.23 576.70,280.97"/>
    </edge>
    <edge id=":3072401977_0" function="internal">
        <lane id=":3072401977_0_0" index="0" speed="13.90" length="6.73" width="3.50" shape="506.27,604.34 503.79,603.54 502.11,602.41 501.23,600.96 501.16,599.17"/>
        <lane id=":3072401977_0_1" index="1" speed="13.90" length="6.73" width="3.50" shape="506.27,604.34 505.34,603.87 504.76,602.95 504.55,601.58 504.71,599.76"/>
    </edge>
    <edge id=":3271391131_0" function="internal">
        <lane id=":3271391131_0_0" index="0" speed="13.90" length="4.34" width="4.00" shape="644.03,961.31 640.27,960.05 640.00,959.80"/>
    </edge>
    <edge id=":3271391131_2" function="internal">
        <lane id=":3271391131_2_0" index="0" speed="13.90" length="7.07" width="4.00" shape="640.00,959.80 639.10,958.94 640.52,957.97 644.54,957.14"/>
    </edge>
    <edge id=":3271391131_1" function="internal">
        <lane id=":3271391131_1_0" index="0" speed="13.90" length="8.13" width="4.00" shape="636.49,958.27 644.54,957.14"/>
    </edge>
    <edge id=":3271391135_0" function="internal">
        <lane id=":3271391135_0_0" index="0" speed="13.90" length="6.33" width="4.00" shape="617.84,968.16 617.09,966.59 616.02,965.66 614.63,965.35 612.92,965.67"/>
    </edge>
    <edge id=":3271391135_1" function="internal">