<?xml version="1.0" encoding="UTF-8"?>

<!-- generated on 2021-07-22 18:32:38 by Eclipse SUMO duarouter Version 1.9.2
<configuration xmlns:xsi="http://www.w3.org/2001/XMLSchema-instance" xsi:noNamespaceSchemaLocation="http://sumo.dlr.de/xsd/duarouterConfiguration.xsd">

    <input>
        <net-file value="sumo.net.xml"/>
        <route-files value="trips.trips.xml"/>
    </input>

    <output>
        <output-file value="sumo.rou.xml"/>
        <alternatives-output value="sumo.rou.alt.xml"/>
    </output>

    <time>
        <begin value="0"/>
        <end value="5000"/>
    </time>

    <report>
        <no-warnings value="true"/>
        <ignore-errors value="true"/>
        <no-step-log value="true"/>
    </report>

</configuration>
-->

<routes xmlns:xsi="http://www.w3.org/2001/XMLSchema-instance" xsi:noNamespaceSchemaLocation="http://sumo.dlr.de/xsd/routes_file.xsd">
    <vehicle id="2" depart="2.00">
        <route edges="565167494_1 565167492 330310713_3 330310713_2 -8796216_2 -8796216_1 397303086 -397303086"/>
    </vehicle>
    <vehicle id="6" depart="3.00">
        <route edges="190641517 719395507 469146402 469146400 589533491 752702309 125568090 777809608 -589533495_2 -589533495_1 -50568411_2 -50568411_1 -397303083 -397303086 8796216_1 8796216_2 484878996_1 484878996_2 8797259_1 8797259_5 8797259_6 8797259_4 8797259_7"/>
    </vehicle>
    <vehicle id="7" depart="3.00">
        <route edges="8796076_2 -8796076_2 -8796076_1 330310713_2 484878996_1 484878996_2 8797259_1 8797259_5 8797259_6 8797259_4 8797259_7 8797259_3 8797259_2 631833935_1 631833935_2"/>
    </vehicle>
    <vehicle id="11" depart="7.00">
        <route edges="719395507 469146402 469146400 589533491 752702309 125568090 777809608 -589533495_2 -589533495_1 -50568411_2 -50568411_1 -397303083 -397303086 8796216_1 8796216_2 484878996_1 484878996_2 484878996_5"/>
    </vehicle>
    <vehicle id="16" depart="11.00">
        <route edges="330310753_2 330310713_1 330310713_3 330310713_2 484878996_1 484878996_2 8797259_1 8797259_5 8797259_6 8797259_4 8797259_7 8797259_3 8797259_2"/>
    </vehicle>
    <vehicle id="20" depart="14.00">
        <route edges="361085968_2 -190641518_1 719026490_1 565167440 564768404_2 719395506_1 719395506_9 719395506_5 719395506_11 719395506_10 719395506_8 719395506_7 719395506_3 719395506_4 50575480_1 50575480_2 330310753_1 59432574 374711603 913105421"/>
    </vehicle>
    <vehicle id="27" depart="20.00">
        <route edges="181329875_2 8797131_9 -484878996_4 -484878996_3 -484878996_5 -484878996_2 -484878996_1 -8796216_2 -8796216_1 -397303084_2 -397303084_1 -397303085 -589533496 -8796601 -45270121_6 780276549"/>
    </vehicle>
    <vehicle id="30" depart="22.00">
        <route edges="565167473 565167472_2 778910124 28317285_3 719395506_1 719395506_9 719395506_5 719395506_11 719395506_10 719395506_8 719395506_7 719395506_3 719395506_4 50575480_1 50575480_2 330310753_1 59432574 589533496 397303085 397303084_1 397303084_2 397303086 397303083 50568411_1 50568411_2 589533495_1 589533495_2 -589533495_2"/>
    </vehicle>
    <vehicle id="31" depart="23.00">
        <route edges="565167471 778910124 28317285_3 719395506_1 719395506_9 719395506_5 719395506_11 719395506_10 719395506_8 719395506_7 719395506_3 719395506_4 50575480_1 50575480_2 330310753_1 59432574 589533496 397303085 397303084_1 397303084_2 397303086 397303083 50568411_1 50568411_2 589533495_1 589533495_2 590831806"/>
    </vehicle>
    <vehicle id="33" depart="24.00">
        <route edges="590571542_2 190641517 719395507 469146402 469146400 589533491 752702309 125568090 777809608 -589533495_2 -589533495_1 -50568411_2 -50568411_1 -397303083 -397303086 8796216_1 8796216_2 484878996_1 484878996_2 8797259_1 8797259_5 8797259_6 8797259_4 8797259_7 8797403_1 778609967"/>
    </vehicle>
    <vehicle id="34" depart="24.00">
        <route edges="468421255 589533491 752702309 125568090 777809608 -589533495_2 -589533495_1 -50568411_2 -50568411_1 -397303083 -397303086 -397303084_2 -397303084_1 -397303085 -589533496 374711603 913105421 777809605_1 777809605_2 468422740 686997726 468422741 468421253 468421254 468421252 8797819_1 8797819_2 8797819_3"/>
    </vehicle>
    <vehicle id="35" depart="25.00">
        <route edges="589533491 752702309 125568090 777809608 -589533495_2 -589533495_1 -50568411_2 -50568411_1 -397303083 -397303086 8796216_1 8796216_2 484878996_1 484878996_2 484878996_5 484878996_3 484878996_4 8797554_1 -8797554_1"/>
    </vehicle>
    <vehicle id="37" depart="26.00">
        <route edges="361085970 361085968_2 -190641518_1 719026490_1 565167440 564768404_2 719395506_1 719395506_9 719395506_5 719395506_11 719395506_10 719395506_8 719395506_7 719395506_3 719395506_4 50575480_1 50575480_2 330310753_1 59432574 589533496 397303085 397303084_1 397303084_2 397303086 397303083 50568411_1 50568411_2 589533495_1 589533495_2 -589533495_2"/>
    </vehicle>
    <vehicle id="38" depart="26.00">
        <route edges="8797090_3 8797090_4 719395506_11 719395506_10 719395506_8 719395506_7 719395506_3 719395506_4 50575480_1 50575480_2 -45270121_3 -45270121_5 -45270121_2 8796601"/>
    </vehicle>
    <vehicle id="42" depart="29.00">
        <route edges="565167469_1 565167469_2 719395505_3 719026490_1 565167440 564768404_2 719395506_1 719395506_9 719395506_5 719395506_11 8795651_4 621527175_9 8797131_1 8797131_2 8797131_6 8797131_5 8797131_10 8797131_9 -484878996_4 -484878996_3 -484878996_5 8797259_1 8797259_5 8797259_6 8797259_4 8797259_7 8797403_1 778609967"/>
    </vehicle>
    <vehicle id="44" depart="31.00">
        <route edges="302958496 621527175_4 621527175_6 565167464 8796076_2 8796076_3 8797131_10 8797131_9 8797554_1 45330151_1 491852320 565167454_2"/>
    </vehicle>
    <vehicle id="45" depart="31.00">
        <route edges="45270121_6 8796601 589533496 397303085 397303084_1"/>
    </vehicle>
    <vehicle id="46" depart="32.00">
        <route edges="8796353_3 8796353_8 8795651_2 565167466 719395506_8 719395506_7 719395506_3 719395506_4 50575480_1 50575480_2 330310753_1 59432574 589533496 397303085 397303084_1 397303084_2 397303086 397303083 50568411_1 50568411_2 589533495_1 589533495_2 590831806"/>
    </vehicle>
    <vehicle id="48" depart="33.00">
        <route edges="565167473 565167472_2 778910124 28317285_3 719395506_1 719395506_9 719395506_5 719395506_11 719395506_10 719395506_8 719395506_7 719395506_3 719395506_4 50575480_1 50575480_2 330310753_1 330310753_2"/>
    </vehicle>
    <vehicle id="53" depart="37.00">
        <route edges="628473035 330310713_1 330310713_3 330310713_2 -8796216_2 -8796216_1 -397303084_2 -397303084_1 -397303085 -589533496 -8796601 45270121_2 45270121_5 45270121_3 -8795503_3 -8795503_5 567066773"/>
    </vehicle>
    <vehicle id="55" depart="38.00">
        <route edges="719026486 708578563 589533498 468422742 590645027 468421273 468421268 38015401 628473035 330310713_1 330310713_3 330310713_2 484878996_1 484878996_2 484878996_5 484878996_3 484878996_4 8797131_3 8797131_4 747449010_1"/>
    </vehicle>
    <vehicle id="58" depart="39.00">
        <route edges="628473035 330310713_1 330310713_3 330310713_2 -8796216_2 -8796216_1 397303086 397303083 50568411_1 50568411_2 44465157 747414953 8797231 752009525 589533494"/>
    </vehicle>
    <vehicle id="61" depart="40.00">
        <route edges="565167464 -8796076_1 330310713_2 -8796216_2 -8796216_1 -397303084_2 -397303084_1 -397303085 -589533496 374711603 913105421"/>
    </vehicle>
    <vehicle id="62" depart="41.00">
        <route edges="361085968_1 361085968_2 -190641518_1 719026490_1 565167440 564768404_2 719395506_1 719395506_9 719395506_5 719395506_11 719395506_10 719395506_8 719395506_7 719395506_3 719395506_4 50575480_1 50575480_2 330310753_1 59432574 374711603 913105421 777809605_1 777809605_2 468422740 686997726 468422741 468421253 468421254 468421252 8797819_1 8797819_2 8797819_3 8797399_2 40802860"/>
    </vehicle>
    <vehicle id="63" depart="42.00">
        <route edges="190641518_1 -190641518_1 719026490_1 565167440 564768404_2 719395506_1 719395506_9 719395506_5 719395506_11 719395506_10 719395506_8 719395506_7 -156723058 -8796353_4 -8796353_5 -8796353_7 -8796353_6 -8796353_2 8796353_2"/>
    </vehicle>
    <vehicle id="67" depart="46.00">
        <route edges="719395507 469146402 468422741 468421253 468421254 468421252 8797819_1 8797819_2 8797819_3 8797399_2 40802860"/>
    </vehicle>
    <vehicle id="69" depart="48.00">
        <route edges="780276540 469146407_2 469146407_3 590571550 8796806_1 8796806_5 8796806_4 8796806_3 8796806_2 8797090_1 8797090_2 8797090_3 8797090_4 719395506_11"/>
    </vehicle>
    <vehicle id="70" depart="48.00">
        <route edges="778910143 8797090_2 8797090_3 8797090_4 719395506_11 719395506_10 719395506_8 719395506_7 719395506_3 719395506_4 50575480_1 50575480_2 330310753_1 59432574"/>
    </vehicle>
    <vehicle id="72" depart="50.00">
        <route edges="115744546 -50568411_2 -50568411_1 -397303083 -397303086 -397303084_2 -397303084_1 -397303085 -589533496 374711603 913105421 777809605_1 777809605_2 468422740 686997726 468422741 468421253 468421254"/>
    </vehicle>
    <vehicle id="74" depart="53.00">
        <route edges="719395506_5 719395506_11 719395506_10 719395506_8 719395506_7 -156723058 156723058"/>
    </vehicle>
    <vehicle id="75" depart="55.00">
        <route edges="778910141 8797130_5 719395506_5 719395506_11 719395506_10 719395506_8 719395506_7 719395506_3 719395506_4 50575480_1 50575480_2 330310753_1 59432574 589533496 397303085 397303084_1 397303084_2 397303086 468421275"/>
    </vehicle>
    <vehicle id="82" depart="61.00">
        <route edges="-8796353_8 8796353_8 8795651_2 8795651_3 8795651_4 621527175_9 621527175_2 621527175_3 621527175_8 621527175_10 621527175_11 719026490_1 565167440"/>
    </vehicle>
    <vehicle id="83" depart="62.00">
        <route edges="719395506_1 719395506_9 719395506_5 719395506_11 719395506_10 719395506_8 719395506_7 719395506_3 719395506_4 50575480_1 50575480_2 330310753_1 59432574 589533496 397303085 397303084_1 397303084_2 397303086 397303083 50568411_1 50568411_2 44465157 747414953 8797231 752009525 589533490"/>
    </vehicle>
    <vehicle id="84" depart="62.00">
        <route edges="621527175_8 621527175_10 621527175_11 719026490_1 565167440 564768404_2 719395506_1 719395506_9 719395506_5 719395506_11 719395506_10 719395506_8 719395506_7 719395506_3 719395506_4 50575480_1 50575480_2 330310753_1 59432574 589533496 397303085"/>
    </vehicle>
    <vehicle id="89" depart="66.00">
        <route edges="564768404_2 719395506_1 719395506_9 719395506_5 719395506_11 8795651_4 621527175_9 8797131_1 8797131_2 8797131_6 8797131_5 8797131_10 8797131_9 -484878996_4 -484878996_3 -484878996_5 8797259_1 8797259_5 8797259_6 8797259_4 8797259_7 8797259_3 8797259_2"/>
    </vehicle>
    <vehicle id="92" depart="68.00">
        <route edges="361085968_1 361085968_2 -190641518_1 719026490_1 565167440 564768404_2 719395506_1 565167467 565167470_2 621527175_10 565167469_1 565167469_2"/>
    </vehicle>
    <vehicle id="93" depart="69.00">
        <route edges="-8796076_2 -8796076_1 330310713_2 -8796216_2 -8796216_1 397303086 397303083 50568411_1 50568411_2 44465157 747414953 8797231 752009525 589533494 589533493 589533492"/>
    </vehicle>
    <vehicle id="96" depart="71.00">
        <route edges="565167471 778910124 28317285_3 719395506_1 719395506_9 719395506_5 719395506_11 719395506_10 719395506_8 719395506_7 -156723058 -8796353_4 -8796353_5 -8796353_7 8796353_7"/>
    </vehicle>
    <vehicle id="97" depart="71.00">
        <route edges="564768404_1 564768404_2 719395505_1 719395505_2 719395505_3"/>
    </vehicle>
    <vehicle id="104" depart="81.00">
        <route edges="374711603 913105421 777809605_1 777809605_2 468422740 686997726 469146400 589533491 752702309"/>
    </vehicle>
    <vehicle id="108" depart="86.00">
        <route edges="778910144 8797090_3 8797090_4 719395506_11 719395506_10 719395506_8 719395506_7 719395506_3 719395506_4 50575480_1 50575480_2 330310753_1 59432574 589533496 397303085 397303084_1 397303084_2 397303086 397303083 50568411_1 50568411_2 44465157 747414953 8797231 752009525 589533490 719026486 708578563 589533498 468422742 590645027"/>
    </vehicle>
    <vehicle id="109" depart="86.00">
        <route edges="361085968_2 -190641518_1 719026490_1 565167440"/>
    </vehicle>
    <vehicle id="110" depart="87.00">
        <route edges="468422740 686997726 469146400 589533491 752702309 125568090 777809608 -589533495_2 -589533495_1 -50568411_2 -50568411_1 -397303083 -397303086 8796216_1 8796216_2 484878996_1 484878996_2 484878996_5 484878996_3 484878996_4 8797131_3 8797131_4 747449010_1 747449010_2 747449011"/>
    </vehicle>
    <vehicle id="111" depart="87.00">
        <route edges="206857465_1 206857465_2 206857465_3 621527175_8 621527175_10 565167469_1 565167468"/>
    </vehicle>
    <vehicle id="112" depart="87.00">
        <route edges="719395506_6 468421267 468421266 59432574 589533496 397303085 397303084_1 397303084_2 397303086 -397303086"/>
    </vehicle>
    <vehicle id="113" depart="88.00">
        <route edges="621527175_2 621527175_3 621527175_8 621527175_10 621527175_11 719026490_1 565167440 564768404_2 719395506_1 719395506_9 719395506_5 719395506_11 719395506_10 719395506_8 719395506_7 719395506_3 719395506_4 50575480_1 50575480_2 330310753_1 59432574 589533496 397303085 397303084_1 397303084_2 397303086 -397303086"/>
    </vehicle>
    <vehicle id="114" depart="88.00">
        <route edges="565167466 719395506_8 719395506_7 -156723058 8796353_3 8796353_8 8795651_2 8795651_3 8795651_4 621527175_9 8797131_1 8797131_2 8797131_6 8797131_5 8797131_10 8797131_9 -484878996_4 -484878996_3"/>
    </vehicle>
    <vehicle id="116" depart="90.00">
        <route edges="-8796076_1 330310713_2 -8796216_2 -8796216_1 -397303084_2 -397303084_1"/>
    </vehicle>
    <vehicle id="123" depart="94.00">
        <route edges="-397303085 -589533496 374711603 913105421 777809605_1 777809605_2 468422740 686997726 468422741 468421253 468421254 468421252 8797819_1 468421256_1 468421256_2 468421255"/>
    </vehicle>
    <vehicle id="125" depart="96.00">
        <route edges="780276540 469146407_2 469146407_3 590571550 8796806_1 8796806_5 8796806_4 8796806_3 8795651_1 -8796353_8 -8796353_3 -8796353_4 -8796353_5 -8796353_7 8796353_7"/>
    </vehicle>
    <vehicle id="128" depart="97.00">
        <route edges="-8796353_7 8796353_7 8796353_5 8796353_4 156723058 719395506_3 719395506_4 50575480_1 50575480_2 330310753_1 59432574 374711603 913105421 777809605_1 777809605_2 468422740 686997726 468422741 468421253 468421254 468421252 8797819_1 8797819_2 8797819_3 8797399_2 8797399_3"/>
    </vehicle>
    <vehicle id="129" depart="99.00">
        <route edges="778910125 8797130_4 8797130_5 719395506_5 719395506_11 8795651_4 621527175_9 8797131_1 8797131_2 8797131_6 8797131_5 8797131_10 8797131_9 -484878996_4 -484878996_3 -484878996_5 8797259_1 8797259_5 8797259_6 8797259_4 8797259_7 8797403_1"/>
    </vehicle>
    <vehicle id="131" depart="100.00">
        <route edges="778910124 28317285_3 719395506_1 719395506_9 719395506_5 719395506_11 719395506_10 719395506_8 719395506_7 719395506_3 206657080 435978968"/>
    </vehicle>
    <vehicle id="135" depart="102.00">
        <route edges="45270121_5 45270121_3 330310753_1 330310753_2 330310713_1 330310713_3 330310713_2 -330310713_2"/>
    </vehicle>
    <vehicle id="137" depart="105.00">
        <route edges="361085970 361085968_2 -190641518_1 719026490_1 565167440 564768404_2 719395506_1 719395506_9 719395506_5 719395506_11 719395506_10 719395506_8 719395506_7 719395506_3 719395506_4 50575480_1 50575480_2 330310753_1 59432574 374711603 913105421 777809605_1 777809605_2 468422740 686997726 469146400 589533491 752702309"/>
    </vehicle>
    <vehicle id="138" depart="105.00">
        <route edges="621527175_9 621527175_2 621527175_3 621527175_8 621527175_10 565167469_1 565167469_2"/>
    </vehicle>
    <vehicle id="139" depart="106.00">
        <route edges="778910144 8797090_3 8797090_4 719395506_11 719395506_10 719395506_8 719395506_7 719395506_3 719395506_4 50575480_1 50575480_2 330310753_1 59432574 589533496 397303085 397303084_1 397303084_2 397303086 468421275"/>
    </vehicle>
    <vehicle id="140" depart="107.00">
        <route edges="397303084_2 -397303084_2 -397303084_1 -397303085 -589533496 -8796601"/>
    </vehicle>
    <vehicle id="144" depart="109.00">
        <route edges="28317285_1 28317285_2 28317285_3 719395506_1 719395506_9 719395506_5 719395506_11 719395506_10 719395506_8 719395506_7 719395506_3 719395506_4 50575480_1 50575480_2 330310753_1 330310753_2 330310713_1 330310713_3 -330310713_3"/>
    </vehicle>
    <vehicle id="147" depart="112.00">
        <route edges="28317285_3 719395506_1 719395506_9 719395506_5 719395506_11 8795651_4 621527175_9 8797131_1 8797131_2 8797131_6 8797131_5 8797131_10 8797131_9 -484878996_4"/>
    </vehicle>
    <vehicle id="150" depart="114.00">
        <route edges="8797819_2 8797819_3 8797399_2 8797399_3 -589533495_2 -589533495_1 -50568411_2 -50568411_1 -397303083 -397303086 -397303084_2 -397303084_1 -397303085 -589533496 -8796601"/>
    </vehicle>
    <vehicle id="151" depart="115.00">
        <route edges="589533493 589533492 125568090 777809608 -589533495_2 -589533495_1 -50568411_2 -50568411_1 -397303083 -397303086 8796216_1 8796216_2 484878996_1 484878996_2 484878996_5 484878996_3 484878996_4 8797554_1 45330151_1 491852320 565167454_2"/>
    </vehicle>
    <vehicle id="152" depart="116.00">
        <route edges="8796353_3 8796353_8 8795651_2 565167466 719395506_8 719395506_7 719395506_3 719395506_4 50575480_1 50575480_2 330310753_1 59432574 374711603 913105421 777809605_1 777809605_2 468422740 686997726 468422741 468421253 468421254 468421252 8797819_1"/>
    </vehicle>
    <vehicle id="153" depart="116.00">
        <route edges="719395506_5 719395506_11 719395506_10 719395506_8 719395506_7 719395506_3 719395506_4 50575480_1 50575480_2 330310753_1 59432574 589533496 397303085 397303084_1 397303084_2 397303086 397303083 50568411_1 50568411_2 44465157 747414953 8797231 752009525 589533490 719026486 708578563"/>
    </vehicle>
    <vehicle id="157" depart="118.00">
        <route edges="374711603 913105421 777809605_1 777809605_2 468422740 686997726 469146400 589533491 752702309 125568090 777809608 -589533495_2 -589533495_1 -50568411_2 -50568411_1 -397303083 -397303086 8796216_1 8796216_2 484878996_1 484878996_2 484878996_5 484878996_3 484878996_4 8797131_3 565167449 772170796_1"/>
    </vehicle>
    <vehicle id="158" depart="121.00">
        <route edges="590571550 8796806_1 8796806_5 8796806_4 8796806_3 8795651_1 8795651_2 565167466 719395506_8 719395506_7"/>
    </vehicle>
    <vehicle id="159" depart="122.00">
        <route edges="206857465_2 206857465_3 621527175_8 621527175_10 621527175_11 719026490_1 565167440 564768404_2 719395506_1 719395506_9 719395506_5 719395506_11 719395506_10 719395506_8 719395506_7 719395506_3 719395506_4 50575480_1 50575480_2 330310753_1 59432574 374711603 913105421 777809605_1 777809605_2 468422740 686997726 468422741 468421253 468421254"/>
    </vehicle>
    <vehicle id="160" depart="123.00">
        <route edges="-8797554_4 -8797554_2 -8797554_1 -484878996_4 -484878996_3 -484878996_5 -484878996_2 -484878996_1 -8796216_2 -8796216_1 397303086 397303083 50568411_1 50568411_2 44465157 747414953 8797231 752009525"/>
    </vehicle>
    <vehicle id="163" depart="127.00">
        <route edges="565167469_2 719395505_3 719026490_1 565167440 564768404_2 719395506_1 719395506_9 719395506_5 719395506_11 719395506_10 719395506_8"/>
    </vehicle>
    <vehicle id="167" depart="130.00">
        <route edges="468421267 468421266 330310753_2 330310713_1 330310713_3 330310713_2 484878996_1 484878996_2 8797259_1 8797259_5 8797259_6 8797259_4 8797259_7 8797403_1 8797403_2 8797403_3"/>
    </vehicle>
    <vehicle id="168" depart="130.00">
        <route edges="589533490 719026486 708578563 589533498 468422742 590645027 468421273 468421268 38015401 628473035 330310713_1 330310713_3 330310713_2 484878996_1 484878996_2 484878996_5 484878996_3 484878996_4 8797554_1 8797554_2 8797554_4"/>
    </vehicle>
    <vehicle id="170" depart="133.00">
        <route edges="59432574 589533496 38015401 628473035 330310713_1 330310713_3 8796076_1 8796076_2 8796076_3 8797131_10 8797131_9"/>
    </vehicle>
    <vehicle id="171" depart="133.00">
        <route edges="8797399_3 -589533495_2 -589533495_1 44465157 747414953 8797231 752009525 589533490 719026486 708578563"/>
    </vehicle>
    <vehicle id="172" depart="133.00">
        <route edges="190641518_1 -190641518_1 719026490_1 565167440 564768404_2 719395506_1 719395506_9 719395506_5 719395506_11 719395506_10 719395506_8 719395506_7 719395506_3 719395506_4 50575480_1 50575480_2 330310753_1 59432574"/>
    </vehicle>
    <vehicle id="173" depart="134.00">
        <route edges="8797819_2 8797819_3 8797399_2 8797399_3 -589533495_2 -589533495_1 -50568411_2 -50568411_1 -397303083 -397303086 8796216_1 8796216_2 484878996_1 484878996_2 484878996_5 484878996_3 484878996_4 8797131_3 8797131_4"/>
    </vehicle>
    <vehicle id="175" depart="136.00">
        <route edges="8795651_1 8795651_2 8795651_3 8795651_4 621527175_9 8797131_1 8797131_2 8797131_6 8797131_5 8797131_10 8797131_9 8797554_1 8797554_2"/>
    </vehicle>
    <vehicle id="179" depart="140.00">
        <route edges="590571542_1 590571542_2 190641517 719395507 469146402"/>
    </vehicle>
    <vehicle id="181" depart="142.00">
        <route edges="780276542 8796806_5 8796806_4 8796806_3 8795651_1 8795651_2 565167466 719395506_8 719395506_7 719395506_3 719395506_4 50575480_1 50575480_2 330310753_1 330310753_2 330310713_1 330310713_3 330310713_2 484878996_1 -484878996_1"/>
    </vehicle>
    <vehicle id="189" depart="151.00">
        <route edges="8796353_8 8795651_2 8795651_3 8795651_4 621527175_9 8797131_1 8797131_2 8797131_6 8797131_5 8797131_10 8797131_9 -484878996_4 565167447"/>
    </vehicle>
    <vehicle id="191" depart="152.00">
        <route edges="180897814 8797819_3 8797399_2 8797399_3 -589533495_2 -589533495_1 -50568411_2 -50568411_1 -397303083 -397303086 -397303084_2 -397303084_1 -397303085 -589533496 589533496"/>
    </vehicle>
    <vehicle id="194" depart="154.00">
        <route edges="397303085 397303084_1 397303084_2 8796216_1 8796216_2 -330310713_2"/>
    </vehicle>
    <vehicle id="198" depart="157.00">
        <route edges="621527175_5 621527175_9 621527175_2 621527175_3 621527175_8 621527175_10 621527175_11"/>
    </vehicle>
    <vehicle id="208" depart="166.00">
        <route edges="-8797554_1 -484878996_4 -484878996_3 -484878996_5 -484878996_2 -484878996_1 -8796216_2 -8796216_1 -397303084_2 -397303084_1 -397303085 -589533496 374711603 913105421 777809605_1 777809605_2 468422740 686997726 468422741 468421253 468421254 468421252 8797819_1 8797819_2 8797819_3 8797399_2 8797399_3"/>
    </vehicle>
    <vehicle id="209" depart="167.00">
        <route edges="8797399_1 8797399_2 8797399_3 -589533495_2 -589533495_1 -50568411_2 -50568411_1 -397303083 -397303086 -397303084_2 -397303084_1 -397303085 -589533496 -8796601 8796601"/>
    </vehicle>
    <vehicle id="214" depart="173.00">
        <route edges="565167487 -8796353_7 -8796353_6 -8796353_2"/>
    </vehicle>
    <vehicle id="216" depart="175.00">
        <route edges="778910143 8797090_2 8797090_3 8797090_4 719395506_11 719395506_10 719395506_8 719395506_7 -156723058 156723058"/>
    </vehicle>
    <vehicle id="223" depart="179.00">
        <route edges="621527175_2 621527175_3 621527175_8 621527175_10 621527175_11 719026490_1 565167440 564768404_2 719395506_1 719395506_9 719395506_5 719395506_11 719395506_10 719395506_8 719395506_7 719395506_3 719395506_4 50575480_1 50575480_2 330310753_1 59432574 589533496 397303085 397303084_1 397303084_2 397303086 397303083 50568411_1 50568411_2 589533495_1 589533495_2 -589533495_2"/>
    </vehicle>
    <vehicle id="230" depart="182.00">
        <route edges="778910143 8797090_2 8797090_3 8797090_4 719395506_11 719395506_10 719395506_8 719395506_7 719395506_3 719395506_4 50575480_1 50575480_2 330310753_1 59432574 589533496 397303085 397303084_1 397303084_2 397303086 397303083 50568411_1 50568411_2 589533495_1"/>
    </vehicle>
    <vehicle id="231" depart="184.00">
        <route edges="565167494_1 565167492 330310713_3 330310713_2 484878996_1 484878996_2 8797259_1 8797259_5 8797259_6 8797259_4 8797259_7 8797259_3"/>
    </vehicle>
    <vehicle id="232" depart="184.00">
        <route edges="780276558 777809605_2 468422740 686997726 469146400 589533491 752702309 125568090 777809608 -589533495_2 -589533495_1 -50568411_2 -50568411_1 -397303083 -397303086 8796216_1 8796602_1 8796602_2"/>
    </vehicle>
    <vehicle id="234" depart="187.00">
        <route edges="-8795503_5 8795503_5 8795503_3 330310753_1 59432574 374711603 913105421 777809605_1 777809605_2 468422740 686997726"/>
    </vehicle>
    <vehicle id="236" depart="188.00">
        <route edges="8797819_2 8797819_3 8797399_2 8797399_3 -589533495_2 -589533495_1 -50568411_2 -50568411_1 -397303083 -397303086 -397303084_2 -397303084_1 -397303085 -589533496 589533496"/>
    </vehicle>
    <vehicle id="241" depart="190.00">
        <route edges="181329875_2 8797131_9 8797131_3 8797131_4 8797131_7"/>
    </vehicle>
    <vehicle id="242" depart="191.00">
        <route edges="8795503_5 8795503_3 330310753_1 330310753_2 330310713_1 330310713_3 330310713_2 -8796216_2 -8796216_1"/>
    </vehicle>
    <vehicle id="243" depart="191.00">
        <route edges="778910141 8797130_5 719395506_5 719395506_11 719395506_10 719395506_8 719395506_7 -156723058 8796353_3 8796353_8 8795651_2"/>
    </vehicle>
    <vehicle id="244" depart="192.00">
        <route edges="-8797554_3 -8797554_4 -8797554_2 -8797554_1 -484878996_4 -484878996_3 -484878996_5 -484878996_2 -484878996_1 484878996_1"/>
    </vehicle>
    <vehicle id="245" depart="195.00">
        <route edges="621527175_8 621527175_10 621527175_11 719026490_1 565167440 564768404_2 719395506_1 719395506_9 719395506_5 719395506_11 719395506_10 719395506_8 719395506_7 719395506_3 719395506_4 50575480_1 50575480_2 330310753_1 330310753_2"/>
    </vehicle>
    <vehicle id="246" depart="195.00">
        <route edges="-8796353_8 -8796353_3 -8796353_4 -8796353_5 -8796353_7 -8796353_6 8796353_6"/>
    </vehicle>
    <vehicle id="247" depart="196.00">
        <route edges="779698678 8796806_4 8796806_3 8795651_1 8795651_2 8795651_3 8795651_4 621527175_9 621527175_2 621527175_3 621527175_8 621527175_10 621527175_11"/>
    </vehicle>
    <vehicle id="249" depart="198.00">
        <route edges="28317285_2 28317285_3 719395506_1 719395506_9 719395506_5 719395506_11 8795651_4 621527175_9 8797131_1 206857465_1 771992002"/>
    </vehicle>
    <vehicle id="250" depart="199.00">
        <route edges="468422741 468421253 468421254 468421252 8797819_1 468421256_1 468421256_2 468421255 589533491 752702309 125568090 777809608 -589533495_2 -589533495_1 -50568411_2 -50568411_1 -397303083 -397303086 8796216_1 8796216_2 -330310713_2 -330310713_3 -330310713_1"/>
    </vehicle>
    <vehicle id="253" depart="200.00">
        <route edges="468422742 590645027 468421273 468421268 38015401 628473035 330310713_1 330310713_3 330310713_2 484878996_1 484878996_2 484878996_5 484878996_3 484878996_4 8797554_1 45330151_1 491852320"/>
    </vehicle>
    <vehicle id="254" depart="202.00">
        <route edges="-484878996_4 -484878996_3 -484878996_5 -484878996_2 -484878996_1 -8796216_2 -8796216_1 -397303084_2 -397303084_1 -397303085 -589533496 374711603 913105421 777809605_1 777809605_2 468422740 686997726 468422741 468421253 468421254 468421252 8797819_1 8797819_2 8797819_3 8797399_2 40802860 180897814"/>
    </vehicle>
    <vehicle id="258" depart="205.00">
        <route edges="50572941 8796570_2 125568089_1 125568089_2 590571542_1 590571542_2 190641517 719395507 469146402 469146400 589533491 752702309 125568090 777809608 -589533495_2 -589533495_1 -50568411_2 -50568411_1 -397303083 -397303086 8796216_1 8796216_2 484878996_1 484878996_2 8797259_1 8797259_5 8797259_6 8797259_4 8797259_7 8797259_3 8797259_2 631833935_1"/>
    </vehicle>
    <vehicle id="262" depart="207.00">
        <route edges="8796353_4 156723058 719395506_3 719395506_4 50575480_1 50575480_2 -45270121_3 -45270121_5 -45270121_2 -45270121_6"/>
    </vehicle>
    <vehicle id="263" depart="207.00">
        <route edges="8797131_1 8797131_2 8797131_6 8797131_5 8797131_10 8797131_9 -484878996_4 -484878996_3 -484878996_5 -484878996_2 -484878996_1 -8796216_2 8796602_1"/>
    </vehicle>
    <vehicle id="264" depart="209.00">
        <route edges="-8797554_1 -484878996_4 -484878996_3 -484878996_5 -484878996_2 -484878996_1 -8796216_2 -8796216_1 -397303084_2"/>
    </vehicle>
    <vehicle id="267" depart="211.00">
        <route edges="468421255 589533491 752702309 125568090 777809608 -589533495_2 -589533495_1 44465157 747414953 8797231 752009525 589533490 719026486 708578563 589533498 468422742"/>
    </vehicle>
    <vehicle id="268" depart="211.00">
        <route edges="206857465_3 621527175_8 621527175_10 621527175_11 719026490_1 565167440 564768404_2 719395506_1 719395506_9 719395506_5 719395506_11 719395506_10 719395506_8 719395506_7 719395506_3 719395506_4 50575480_1 50575480_2 330310753_1 59432574 589533496 397303085 397303084_1 397303084_2 397303086 397303083 50568411_1 50568411_2 44465157 747414953 8797231 752009525 589533490"/>
    </vehicle>
    <vehicle id="273" depart="217.00">
        <route edges="-589533495_2 -589533495_1 -50568411_2 -50568411_1 -397303083 -397303086 8796216_1 8796216_2 484878996_1 484878996_2 484878996_5 484878996_3 565167447"/>
    </vehicle>
    <vehicle id="274" depart="218.00">
        <route edges="45270121_3 330310753_1 330310753_2 330310713_1 330310713_3 330310713_2 484878996_1 484878996_2 484878996_5 -484878996_5"/>
    </vehicle>