<?xml version='1.0' encoding='UTF-8'?>
<edges>
  <edge id="8796601" from="1689414301" to="575531973" numLanes="1" width="4.0" shape="81.300597,171.216409 78.990966,169.180543 74.911946,165.593878 68.963986,162.344735 59.762934,159.603419 22.456858,153.916995 16.882567,153.135661 "/>
  <edge id="-8796601" to="1689414301" from="575531973" numLanes="1" width="4.0" shape="16.882567,153.135661 22.456858,153.916995 59.762934,159.603419 68.963986,162.344735 74.911946,165.593878 78.990966,169.180543 81.300597,171.216409 "/>
  <edge id="8797176" from="63356897" to="63348879" numLanes="1" width="4.0" shape="-279.858314,-93.498908 -280.231728,-88.534602 -281.499389,-71.531467 -281.504914,-71.376355 -281.495590,-68.469837 -281.434474,-49.418180 -283.417105,-39.095602 -285.130889,-30.172773 -285.161142,-29.945725 -286.099179,-17.489851 -287.182699,-3.130326 -287.185131,-2.866094 -286.534357,8.557905 -286.123162,15.776230 -287.991871,30.838940 -288.446821,34.506065 -288.458506,34.633504 -290.266017,65.010043 -290.709140,72.377888 "/>
  <edge id="8797231" from="565073349" to="576391837" numLanes="1" width="4.0" shape="-194.023079,298.895638 -114.695895,298.846830 -114.651715,298.846314 -105.584274,298.640379 "/>
  <edge id="8797515" from="574875930" to="Custom231" numLanes="1" width="4.0" shape="86.113144,260.058620 80.136376,322.201594 "/>
  <edge id="38015401" from="63348952" to="643604703" numLanes="2" width="3.5" shape="2.724082,145.420301 2.928320,143.546977 2.931586,143.515710 5.419403,118.623660 "/>
  <edge id="38130522" from="63360565" to="Custom232" numLanes="1" width="4.0" shape="-220.982185,-454.104463 -282.158382,-483.177022 "/>
  <edge id="40802860" from="1689414566" to="643597519" numLanes="1" width="4.0" shape="-231.296166,454.128765 -223.512934,454.376045 -178.552831,456.201433 -144.353652,457.586093 "/>
  <edge id="44465157" from="63357512" to="6993562629" numLanes="1" width="4.0" shape="-242.986788,300.060214 -235.559906,299.986789 -232.812387,299.976337 -232.764256,299.975574 -221.012365,299.647921 "/>
  <edge id="45270919" from="Custom233" to="574900368" numLanes="1" width="4.0" shape="36.183923,247.380123 35.715495,252.666807 29.646585,321.341543 "/>
  <edge id="45308484" from="63348864" to="63348879" numLanes="1" width="4.0" shape="-216.159349,-88.095330 -216.389489,-83.801977 -219.653159,-23.801922 -221.759801,5.549855 -221.760110,5.554237 -223.330112,28.123231 -224.797044,40.817781 -229.305232,52.029026 -237.046995,61.154027 -245.686020,67.567987 -254.422315,71.075838 -264.770144,72.192442 -288.571136,70.502977 "/>
  <edge id="50568357" from="575531999" to="Custom234" numLanes="1" width="4.0" shape="-249.388518,262.686917 -252.018202,248.772071 -252.059460,248.597210 -254.847635,238.777017 -254.896996,238.626211 -254.958157,238.479792 -256.020532,236.195746 -257.059712,233.962839 -257.169711,233.758411 -257.302658,233.568107 -260.012406,230.132691 -260.147256,229.978648 -260.297147,229.839198 -260.460509,229.715802 -263.990489,227.322955 -264.175038,227.211869 -264.370463,227.121275 -267.698630,225.791161 -267.852974,225.736689 -268.011254,225.695020 -271.336922,224.963589 -271.614843,224.922665 -305.785718,222.323625 -334.083601,220.163871 -334.205852,220.158295 -344.103057,220.010062 -344.282608,220.015441 -349.925025,220.438679 -350.115536,220.462207 -350.302914,220.503891 -354.110207,221.544903 -354.285152,221.601500 -354.454160,221.673925 -354.615803,221.761565 -357.650073,223.591997 -357.789051,223.683944 -357.919893,223.787141 -360.130906,225.685639 -360.275824,225.823232 -360.406287,225.974599 -360.520994,226.138230 -362.353604,229.052047 -362.459326,229.242407 -362.543727,229.443132 -363.848861,233.091207 -363.904731,233.274674 -363.942773,233.462648 -363.962634,233.653402 -364.286236,239.448491 -364.285346,239.686446 -361.653830,281.225471 "/>
  <edge id="50568360" from="643574692" to="643574760" numLanes="1" width="4.0" shape="-358.816524,310.679562 -355.039536,335.140268 -354.981933,335.398576 -353.658101,339.906725 -353.598399,340.080175 -353.523057,340.247426 -353.432707,340.407070 -351.508760,343.469844 -351.392598,343.635524 -351.260289,343.788617 -351.113188,343.927559 -348.180393,346.429436 -348.005612,346.562665 -347.817268,346.675913 -344.670312,348.339910 -344.494798,348.422094 -344.312153,348.486904 -341.338103,349.382550 -341.182204,349.422733 -341.023578,349.450246 -337.047445,349.976049 -336.779404,349.993301 -332.393543,349.980485 -332.218473,349.972295 -270.694936,344.384150 -270.479308,344.352643 -270.268388,344.297865 -260.831520,341.289471 -260.628015,341.212160 -260.434118,341.113189 -260.252127,340.993730 -253.415367,335.953125 -253.298787,335.860274 -253.189445,335.758998 -249.292415,331.869872 "/>
  <edge id="50572941" from="643596761" to="643596767" numLanes="1" width="4.0" shape="266.613004,302.310881 266.586865,301.159831 266.923984,299.150994 267.935789,296.888236 "/>
  <edge id="50572945" from="643596761" to="643596786" numLanes="1" width="4.0" shape="261.364948,303.436852 258.702279,300.596288 257.462403,299.271319 257.331922,299.144040 257.190394,299.029168 257.038996,298.927660 256.878985,298.840356 252.921908,296.909901 "/>
  <edge id="50572951" from="643596776" to="643596801" numLanes="1" width="4.0" shape="267.848764,273.423316 267.569070,270.988566 267.559873,268.314837 267.884675,264.815922 268.930433,260.658662 270.924600,254.524605 "/>
  <edge id="50572954" from="1689414109" to="643596801" numLanes="1" width="4.0" shape="231.795187,269.960447 234.344596,269.385882 245.358422,266.914362 245.637270,266.830044 250.634992,264.911521 250.783792,264.847369 250.926910,264.771381 255.850004,261.895997 259.480966,259.822212 259.687952,259.686345 263.356551,256.938888 263.537028,256.786279 263.698242,256.613445 266.556670,253.160685 "/>
  <edge id="50573172" from="Custom235" to="63350156" numLanes="2" width="3.5" shape="15.735128,239.288767 79.249899,244.117555 143.981878,253.206978 147.267509,253.672224 "/>
  <edge id="50575479" from="574875930" to="643604457" numLanes="1" width="4.0" shape="88.383164,258.271660 91.916556,239.339843 "/>
  <edge id="-50575479" to="574875930" from="643604457" numLanes="1" width="4.0" shape="91.916556,239.339843 88.383164,258.271660 "/>
  <edge id="59432574" from="63333762" to="575531973" numLanes="2" width="3.5" shape="30.772555,95.829437 30.715743,95.910677 28.711328,98.731134 28.606047,98.888087 25.015247,104.566844 24.869198,104.820751 20.208995,113.769273 20.072082,114.065022 16.344697,123.211235 13.496883,130.011889 13.371176,130.363703 13.283685,130.726912 10.821212,144.033714 10.812055,144.085354 10.148386,147.998551 "/>
  <edge id="81125862" from="945391129" to="1057847670" numLanes="1" width="4.0" shape="296.932931,426.044587 297.071991,426.115184 297.084569,426.093936 296.946805,426.012385 294.078046,424.314201 292.175733,422.431593 291.036237,420.201691 290.811773,417.560687 291.412729,415.365498 292.522171,413.688025 294.012196,412.899540 296.395636,412.501024 298.805443,412.684953 302.095300,413.759434 302.344756,413.943714 "/>
  <edge id="81125885" from="Custom236" to="643597412" numLanes="1" width="4.0" shape="-69.597725,410.831139 -21.957707,409.638043 "/>
  <edge id="81125914" from="1422601301" to="1422601300" numLanes="1" width="4.0" shape="192.710130,418.586076 186.702919,420.545061 186.546276,420.603493 186.395061,420.674804 183.849154,422.008223 183.658575,422.121937 183.481769,422.256067 183.320912,422.408959 181.542690,424.297694 181.402510,424.463817 181.281186,424.644171 181.180151,424.836626 179.984679,427.449752 179.909675,427.638485 179.854199,427.833851 179.818821,428.033837 179.555695,430.139846 179.540482,430.358349 179.549254,430.577205 179.581906,430.793789 180.267703,434.101841 180.319238,434.299193 180.390606,434.490269 180.481064,434.673082 180.589671,434.845732 182.540372,437.621767 182.654001,437.768496 182.780741,437.904060 182.919502,438.027294 183.069087,438.137135 183.228210,438.232638 186.937934,440.231142 187.132117,440.322666 187.334991,440.392850 187.544219,440.440885 187.757390,440.466219 190.637597,440.652521 190.863405,440.654352 191.087980,440.630717 191.308459,440.581917 193.824145,439.873994 194.074017,439.785427 200.176691,437.155051 "/>
  <edge id="115744546" from="643574692" to="63357512" numLanes="1" width="4.0" shape="-353.312291,308.117206 -321.828021,305.761703 -263.618800,301.402569 -263.611969,301.402046 -250.935607,300.409075 "/>
  <edge id="125568084" from="5243171092" to="1689414109" numLanes="3" width="3.5" shape="196.062670,268.402720 201.759220,270.452319 201.765936,270.454730 206.746831,272.239196 "/>
  <edge id="125568085" from="643597238" to="Custom237" numLanes="2" width="3.5" shape="-198.471577,223.758981 -29.768622,234.737691 "/>
  <edge id="125568090" from="5629539551" to="7258986375" numLanes="4" width="3.5" shape="-93.431247,349.100190 -102.250871,348.715199 -102.540709,348.708556 -114.733708,348.681673 -114.749915,348.681656 -121.277488,348.682378 -215.684341,348.647827 "/>
  <edge id="156723058" from="1689414101" to="1689414224" numLanes="1" width="4.0" shape="211.980948,-59.810931 211.042856,-59.801892 139.304240,-64.920889 136.879500,-65.042250 "/>
  <edge id="-156723058" to="1689414101" from="1689414224" numLanes="1" width="4.0" shape="136.879500,-65.042250 139.304240,-64.920889 211.042856,-59.801892 211.980948,-59.810931 "/>
  <edge id="180897814" from="643597519" to="496106642" numLanes="1" width="4.0" shape="-144.996334,457.452245 -137.237653,460.463281 -135.325844,467.091112 -135.490475,470.635686 "/>
  <edge id="190641517" from="945391296" to="643604535" numLanes="3" width="3.5" shape="102.658611,338.229473 91.451518,340.054593 90.763138,340.214903 79.272195,343.721267 "/>
  <edge id="206657080" from="2166980534" to="2166980552" numLanes="1" width="4.0" shape="121.206315,-45.030721 117.292683,-46.271199 114.601049,-47.165713 "/>
  <edge id="207634647" from="2178846530" to="2178846525" numLanes="1" width="4.0" shape="117.394805,104.655464 117.037395,108.792875 116.511872,114.770135 114.581356,122.991754 111.300305,126.213249 104.315220,125.750207 94.575750,124.940777 93.511532,124.851609 "/>
  <edge id="269095741" from="63356430" to="2743765102" numLanes="1" width="4.0" shape="185.703402,-323.489924 181.976769,-323.053951 179.194908,-322.888515 179.187905,-322.888086 137.803588,-320.281249 104.329139,-327.429810 101.527295,-328.025736 95.956933,-329.213510 "/>
  <edge id="302958496" from="Custom238" to="3072401977" numLanes="1" width="4.0" shape="51.035951,-3.868313 24.753481,-9.669459 "/>
  <edge id="361085970" from="3656058649" to="3656058641" numLanes="1" width="4.0" shape="16.791452,-464.801746 30.854774,-463.971259 "/>
  <edge id="361085972" from="3656058643" to="3656058650" numLanes="1" width="4.0" shape="33.852115,-447.939763 25.366578,-448.509898 11.865325,-449.416895 "/>
  <edge id="374711603" from="575531973" to="643597247" numLanes="2" width="3.5" shape="8.754851,156.029416 7.713190,161.901716 7.688244,162.064534 3.486002,194.588511 3.484797,194.597942 0.953092,214.620329 -0.545812,226.340741 "/>
  <edge id="392360164" from="574900523" to="631946853" numLanes="1" width="4.0" shape="178.402483,349.806923 186.225066,353.873657 186.376372,353.944454 186.533059,354.002377 186.694033,354.047022 201.261986,357.439104 201.481586,357.477481 201.704092,357.491179 209.609378,357.536444 "/>
  <edge id="397303083" from="63350161" to="576178618" numLanes="2" width="4.0" shape="-227.360296,232.246719 -228.007045,233.090823 -233.527778,242.787131 -237.241516,249.891516 -240.734592,257.155626 -242.030888,261.393330 "/>
  <edge id="-397303083" to="63350161" from="576178618" numLanes="3" width="4.0" shape="-242.030888,261.393330 -240.734592,257.155626 -237.241516,249.891516 -233.527778,242.787131 -228.007045,233.090823 -227.360296,232.246719 "/>
  <edge id="397303085" from="63348952" to="63350415" numLanes="1" width="4.0" shape="-8.584573,152.214908 -13.934656,151.616319 -47.362524,148.076118 -56.755793,147.329088 -73.176295,148.820471 "/>
  <edge id="-397303085" to="63348952" from="63350415" numLanes="2" width="4.0" shape="-73.176295,148.820471 -56.755793,147.329088 -47.362524,148.076118 -13.934656,151.616319 -8.584573,152.214908 "/>
  <edge id="397303086" from="63344486" to="63350161" numLanes="3" width="4.0" shape="-171.891532,170.423200 -187.513699,181.214090 -187.796282,181.428390 -195.915628,188.173068 -195.965108,188.214853 -206.421160,197.190656 -206.795805,197.557563 -211.923721,203.284868 "/>
  <edge id="-397303086" to="63344486" from="63350161" numLanes="1" width="4.0" shape="-211.923721,203.284868 -206.795805,197.557563 -206.421160,197.190656 -195.965108,188.214853 -195.915628,188.173068 -187.796282,181.428390 -187.513699,181.214090 -171.891532,170.423200 "/>
  <edge id="397353597" from="Custom239" to="643596761" numLanes="2" width="4.0" shape="299.549566,344.753960 270.446141,310.284056 "/>
  <edge id="397353599" from="643596801" to="Custom240" numLanes="1" width="4.0" shape="276.198417,238.354157 296.432129,179.398507 305.303104,153.643738 314.338633,128.391078 333.565339,93.624802 "/>
  <edge id="435978968" from="2166980552" to="2166980540" numLanes="1" width="4.0" shape="111.845161,-50.677598 111.632776,-53.301214 113.584158,-64.216277 117.632539,-80.207752 121.134797,-90.491496 126.478676,-91.380371 128.829311,-91.470350 131.438124,-90.726208 "/>
  <edge id="435978970" from="2166980552" to="Custom241" numLanes="1" width="4.0" shape="106.615044,-49.236802 96.955667,-51.060961 95.033068,-52.685759 94.367874,-57.480889 "/>
  <edge id="468421252" from="4629566183" to="1422617306" numLanes="3" width="3.5" shape="11.075281,452.288893 26.170082,471.706080 "/>
  <edge id="468421253" from="4629566185" to="4629566184" numLanes="3" width="3.5" shape="-14.256066,391.643768 -12.828164,398.273992 -12.711908,398.718364 -9.543521,408.973919 "/>
  <edge id="468421254" from="4629566184" to="4629566183" numLanes="2" width="3.5" shape="-7.281749,410.367310 -4.124774,420.597016 -4.015037,420.901774 -3.877596,421.195082 10.651244,448.798735 10.804726,449.061875 10.980507,449.310672 11.226447,449.628464 "/>
  <edge id="468421255" from="4629566186" to="63348946" numLanes="3" width="3.5" shape="-14.940742,397.931781 -19.202423,381.404956 -20.983559,372.024360 -22.281682,364.927841 "/>
  <edge id="468421266" from="4507223014" to="63333762" numLanes="3" width="3.5" shape="42.306763,80.263407 39.018103,83.455946 "/>
  <edge id="468421267" from="4629566994" to="4507223014" numLanes="3" width="3.5" shape="55.608511,71.495892 52.452459,73.753334 43.170636,79.584939 "/>
  <edge id="468421268" from="4629566995" to="63348952" numLanes="3" width="3.5" shape="0.176120,187.175092 2.650231,162.745383 3.091113,158.511779 "/>
  <edge id="468421273" from="643597245" to="4629566995" numLanes="2" width="3.5" shape="-7.714619,226.137986 -5.784856,215.281786 -5.770100,215.192023 -1.836551,189.152581 "/>
  <edge id="468421274" from="Custom242" to="63350161" numLanes="4" width="3.5" shape="-284.095557,219.060246 -237.165298,223.544975 -236.254248,223.637391 "/>
  <edge id="468421275" from="63350161" to="643597238" numLanes="4" width="3.5" shape="-203.919911,226.805936 -200.870320,227.082501 "/>
  <edge id="468422740" from="4629580756" to="643604498" numLanes="3" width="3.5" shape="-18.091349,309.354103 -19.471491,322.035022 -19.500958,322.722236 -19.239858,334.221095 -19.192025,336.327654 -19.789425,346.120068 "/>
  <edge id="468422741" from="575531981" to="4629566185" numLanes="2" width="3.5" shape="-16.451870,366.445236 -15.793801,373.290037 -15.325777,378.265465 -15.262488,378.675588 -12.966433,389.321260 "/>
  <edge id="468422742" from="4629580757" to="643597279" numLanes="3" width="3.5" shape="-15.873876,275.605968 -10.935759,251.572616 -10.915122,251.466660 -9.742009,245.095433 "/>
  <edge id="469146400" from="575531981" to="63348946" numLanes="3" width="3.5" shape="-17.692739,353.670872 -21.737054,353.695038 "/>
  <edge id="469146402" from="4635435917" to="575531981" numLanes="4" width="3.5" shape="20.722422,352.062583 -2.793681,351.980884 -6.607406,351.951330 "/>
  <edge id="469146403" from="Custom243" to="643596790" numLanes="3" width="3.5" shape="291.540622,287.595451 284.767170,287.575353 "/>
  <edge id="484879000" from="5243171092" to="63349915" numLanes="1" width="4.0" shape="188.714731,269.341987 188.064232,270.822999 182.309844,283.909362 182.242695,284.083758 178.013075,296.812808 176.758754,300.561542 "/>
  <edge id="491852282" from="576029115" to="Custom244" numLanes="1" width="4.0" shape="-103.276179,-390.826492 -98.745156,-387.435572 -98.591827,-387.331544 -98.429528,-387.242152 -98.259654,-387.168164 -98.083661,-387.110214 -97.903061,-387.068800 -97.719403,-387.044277 3.006147,-378.319893 "/>
  <edge id="491852320" from="576029105" to="4839403420" numLanes="1" width="4.0" shape="-112.859977,-387.635962 -115.439831,-371.412305 "/>
  <edge id="491852432" from="3656999810" to="4839404197" numLanes="1" width="4.0" shape="-103.648382,-404.237657 -108.927265,-428.045069 -109.274825,-446.183526 -109.290249,-446.396037 -109.328193,-446.605702 -109.388227,-446.810140 -110.181332,-449.059969 -110.258253,-449.247329 -110.353730,-449.425949 -110.466781,-449.593996 -110.596250,-449.749748 -110.740806,-449.891607 -110.898969,-450.018119 -111.069116,-450.127986 -111.249502,-450.220081 -111.438278,-450.293459 -113.702647,-451.044048 -113.908180,-451.100221 -114.118522,-451.134209 -114.331286,-451.145628 -137.346278,-451.153058 "/>
  <edge id="565158620" from="945391502" to="Custom245" numLanes="1" width="4.0" shape="204.139021,444.757026 177.162861,466.636469 "/>
  <edge id="565158623" from="5443925658" to="5443925665" numLanes="1" width="4.0" shape="255.068359,334.105151 225.465954,332.987328 225.261267,332.990083 200.936787,334.564954 190.688413,330.532157 "/>
  <edge id="565158627" from="Custom246" to="5443925676" numLanes="1" width="4.0" shape="228.666180,421.935236 229.967563,413.713770 229.989440,413.505306 229.989380,413.295698 229.967382,413.087247 229.923688,412.882243 227.497904,403.851539 227.440178,403.671192 227.365654,403.497112 227.275001,403.330861 227.169031,403.173928 227.048695,403.027721 216.843651,391.761134 216.727210,391.642841 210.868144,386.165042 "/>
  <edge id="565158628" from="3271391135" to="Custom247" numLanes="1" width="4.0" shape="130.298985,351.720357 119.540757,355.379209 "/>
  <edge id="565158630" from="1422600205" to="Custom248" numLanes="1" width="4.0" shape="100.476961,426.100238 110.043212,424.710800 110.228905,424.674791 110.410366,424.621400 110.585971,424.551106 110.754150,424.464536 110.913399,424.362466 111.062293,424.245808 123.270998,413.711609 "/>
  <edge id="565167440" from="5443992218" to="5443992217" numLanes="1" width="4.0" shape="182.193580,-491.647997 185.430356,-489.901035 235.471205,-462.891106 237.718853,-461.677534 "/>
  <edge id="565167443" from="Custom249" to="5443993734" numLanes="1" width="4.0" shape="-186.406401,-104.988443 -186.953728,-98.810947 -187.313622,-94.954549 "/>
  <edge id="565167445" from="5443993740" to="5443993741" numLanes="1" width="4.0" shape="-158.286101,-126.261778 -163.928726,-126.722873 -172.495165,-127.421669 -232.045572,-132.253034 -235.230868,-136.066343 -231.182790,-186.790034 -231.019418,-188.837145 -231.013400,-189.032064 -231.026393,-189.226643 -231.058275,-189.419032 -231.108743,-189.607401 -231.177315,-189.789959 -231.263341,-189.964972 -231.366003,-190.130774 -233.731690,-193.565230 -233.853307,-193.724143 -233.990194,-193.870107 -234.140983,-194.001661 -234.304163,-194.117489 -234.478101,-194.216430 -234.661056,-194.297494 -234.851195,-194.359871 -235.046616,-194.402934 -235.245362,-194.426254 -238.537085,-194.646309 -240.829367,-194.799869 "/>
  <edge id="565167446" from="Custom250" to="63348904" numLanes="1" width="4.0" shape="-184.303103,-226.889951 -183.303121,-240.647122 -183.299003,-240.859782 -183.317493,-241.071675 -183.358381,-241.280407 -183.941712,-243.597378 -184.000725,-243.790155 -184.078846,-243.976011 -184.175281,-244.153059 -184.289050,-244.319498 -184.418998,-244.473637 -184.563803,-244.613911 -184.721995,-244.738894 -184.891966,-244.847316 -185.071989,-244.938075 -187.256965,-245.904775 -187.455778,-245.980368 -187.661495,-246.034420 -187.871788,-246.066319 -234.098367,-250.580372 -234.326064,-250.589562 -234.553328,-250.572791 -236.897945,-250.264680 "/>
  <edge id="565167447" from="7239459243" to="Custom251" numLanes="1" width="4.0" shape="-146.496952,-285.074172 -151.463935,-285.484282 -151.475616,-285.485212 -175.469360,-287.324828 -175.648876,-287.330504 -175.828177,-287.320052 -176.005818,-287.293556 -176.180365,-287.251231 -188.528694,-283.662803 -190.889820,-282.976660 -221.612478,-282.551895 "/>
  <edge id="565167449" from="5443993756" to="5443993755" numLanes="1" width="4.0" shape="-196.790436,-313.744526 -196.540576,-318.706362 -196.545404,-318.978361 -197.527324,-330.392920 "/>
  <edge id="565167452" from="Custom252" to="5443993757" numLanes="1" width="4.0" shape="-150.408915,-451.728347 -163.025087,-451.805078 -163.238650,-451.794949 -163.449911,-451.762080 -163.656456,-451.706847 -163.855926,-451.629881 -172.781250,-447.625568 -172.975613,-447.525260 -173.157861,-447.404327 -173.325813,-447.264216 -186.732427,-434.775330 -188.208995,-433.400247 "/>
  <edge id="565167456" from="5443993763" to="Custom253" numLanes="1" width="4.0" shape="-7.068880,-300.290932 -6.682544,-306.007973 -2.694962,-365.754746 -1.151408,-370.003161 "/>
  <edge id="565167457" from="Custom254" to="5443993764" numLanes="1" width="4.0" shape="9.526889,-389.813305 4.724312,-341.828823 4.715004,-341.680042 3.758599,-303.736617 3.649414,-299.347292 "/>
  <edge id="565167464" from="5443993783" to="5443993781" numLanes="1" width="4.0" shape="27.498323,-76.786400 -55.746389,-84.026124 -55.751564,-84.026567 -64.658536,-84.777898 -68.069839,-85.081560 -68.088517,-85.083134 -72.351678,-85.422385 "/>
  <edge id="565167466" from="5443993787" to="5443993785" numLanes="1" width="4.0" shape="169.070181,-145.520636 169.059408,-141.176361 168.857664,-128.153131 159.075574,-119.706347 151.066946,-120.178699 146.990543,-120.826113 "/>
  <edge id="565167467" from="5443993790" to="5443993789" numLanes="1" width="4.0" shape="216.634990,-419.561998 199.591414,-428.660975 "/>
  <edge id="565167468" from="5443993793" to="5443993791" numLanes="1" width="4.0" shape="174.682611,-440.459528 192.220320,-431.897889 "/>
  <edge id="565167471" from="3791567197" to="5443993803" numLanes="1" width="4.0" shape="307.626171,-391.206771 300.109449,-385.869546 273.727958,-387.794118 "/>
  <edge id="565167473" from="Custom255" to="5443993808" numLanes="1" width="4.0" shape="294.498332,-352.232812 270.663845,-354.396063 "/>
  <edge id="565167486" from="5443993976" to="5443993974" numLanes="1" width="4.0" shape="266.354998,-43.679790 255.682798,-49.095015 255.485356,-49.182143 255.279676,-49.247489 255.068152,-49.290294 254.853247,-49.310058 224.174573,-50.468065 222.515680,-50.559800 "/>
  <edge id="565167487" from="Custom256" to="5443993977" numLanes="1" width="4.0" shape="170.800591,-28.014852 211.342680,-25.058180 211.352502,-25.057488 212.622137,-24.971177 "/>
  <edge id="565167489" from="5443993979" to="Custom257" numLanes="1" width="4.0" shape="156.244189,109.777040 156.072438,111.909683 155.340442,120.042813 155.332695,120.256953 155.347902,120.470693 155.385889,120.681580 155.931062,122.991067 155.988540,123.188533 156.065994,123.379053 156.162603,123.560612 156.277347,123.731289 156.409011,123.889280 156.556205,124.032915 156.717371,124.160674 156.890805,124.271207 157.074673,124.363345 159.248027,125.315959 159.448609,125.391344 159.656105,125.444836 159.868133,125.475823 181.283090,127.441219 "/>
  <edge id="565167490" from="Custom258" to="5443993982" numLanes="1" width="4.0" shape="-108.777457,167.910528 -127.101772,171.984013 -128.199276,171.874127 -128.792914,170.944512 -130.285557,165.093384 "/>
  <edge id="565167492" from="5443993986" to="5443993985" numLanes="1" width="4.0" shape="-30.764910,97.791805 -30.459601,94.658875 -30.459360,94.656388 -30.026943,90.160956 "/>
  <edge id="565167497" from="Custom259" to="5443993994" numLanes="1" width="4.0" shape="-286.426070,113.914249 -261.530748,117.808405 "/>
  <edge id="567066770" from="5459489515" to="5459489518" numLanes="1" width="4.0" shape="206.076733,79.251055 202.334578,78.839079 202.298162,78.835407 185.722024,77.316978 184.727000,76.883413 184.459082,75.831619 187.363841,34.496157 190.676457,-12.850850 191.069058,-13.798509 192.065103,-14.043637 210.666479,-12.522322 210.774931,-12.516412 212.397090,-12.472132 "/>
  <edge id="567066772" from="1689414155" to="Custom260" numLanes="1" width="4.0" shape="155.894071,101.514024 156.084003,96.830583 156.081353,96.618569 156.056272,96.408026 156.009043,96.201322 155.940196,96.000780 155.850505,95.808653 153.994693,92.327641 "/>
  <edge id="567066773" from="5459489520" to="Custom261" numLanes="1" width="4.0" shape="145.467900,108.864362 145.370103,111.314239 144.552064,125.522866 144.304686,126.117095 143.662597,126.162097 141.699861,125.625235 "/>
  <edge id="585902833" from="5598542552" to="Custom262" numLanes="1" width="4.0" shape="96.722822,68.587516 92.212823,68.067285 92.019105,68.054425 91.825052,68.060409 91.632493,68.085179 91.443243,68.128502 91.259086,68.189971 91.081756,68.269006 90.912924,68.364862 90.754183,68.476635 90.607026,68.603274 90.472841,68.743584 90.352893,68.896243 90.248312,69.059813 82.953627,81.791093 "/>
  <edge id="589533490" from="5629539552" to="6751093842" numLanes="1" width="4.0" shape="-84.281192,298.303487 -66.491233,298.012811 "/>
  <edge id="589533491" from="63348946" to="643604505" numLanes="3" width="3.5" shape="-35.495009,353.467183 -38.711756,353.341357 -47.449695,352.880211 "/>
  <edge id="589533492" from="5629539549" to="5629539551" numLanes="1" width="4.0" shape="-91.368473,340.782855 -91.488306,345.775101 -91.571249,349.220527 "/>
  <edge id="589533493" from="5629539550" to="5629539549" numLanes="1" width="4.0" shape="-90.534258,305.637695 -91.368486,340.783390 "/>
  <edge id="589533494" from="5629539552" to="5629539550" numLanes="1" width="4.0" shape="-90.410877,300.318825 -90.491522,303.604562 -90.491682,303.611610 -90.534379,305.643129 "/>
  <edge id="589533496" from="575531973" to="63348952" numLanes="1" width="4.0" shape="8.945238,152.143381 5.552495,151.770459 "/>
  <edge id="-589533496" to="575531973" from="63348952" numLanes="1" width="4.0" shape="5.552495,151.770459 8.945238,152.143381 "/>
  <edge id="589533498" from="63348949" to="4629580757" numLanes="2" width="3.5" shape="-21.093682,292.289951 -19.259692,283.374763 -17.991276,277.214133 "/>
  <edge id="590571550" from="574900265" to="5243171092" numLanes="5" width="3.5" shape="179.863513,266.454823 187.437763,269.072219 "/>
  <edge id="590645027" from="643597279" to="643597245" numLanes="2" width="3.5" shape="-11.095408,242.874298 -7.729935,226.218647 "/>
  <edge id="590831806" from="1689414568" to="Custom263" numLanes="4" width="3.5" shape="-250.813955,348.736742 -257.017551,348.796645 -281.037947,348.365420 -281.996532,348.414025 -292.716211,349.698699 "/>
  <edge id="599531145" from="643596767" to="643596776" numLanes="1" width="4.0" shape="270.054114,288.120379 270.194392,284.251276 "/>
  <edge id="601622457" from="5579955586" to="Custom264" numLanes="1" width="4.0" shape="71.599017,6.074898 70.630857,6.145119 63.632972,4.945945 63.549395,4.363302 "/>
  <edge id="611877173" from="5792767450" to="3271391131" numLanes="1" width="4.0" shape="169.249985,349.079399 168.193132,348.801801 162.596149,347.327361 "/>
  <edge id="611877176" from="3271391131" to="5792767451" numLanes="1" width="4.0" shape="162.866684,347.160691 168.488020,346.360713 171.932590,345.870759 "/>
  <edge id="628473035" from="643604703" to="63333764" numLanes="2" width="3.5" shape="5.427032,118.536275 6.862588,99.315789 7.478321,93.090618 "/>
  <edge id="686997726" from="643604498" to="575531981" numLanes="2" width="3.5" shape="-18.015626,348.723248 -17.706992,352.451431 "/>
  <edge id="708578563" from="6658424482" to="63348949" numLanes="1" width="4.0" shape="-51.235293,297.761592 -35.847512,297.646414 -35.835122,297.646283 -29.345168,297.557492 "/>
  <edge id="719026486" from="6751093842" to="6658424482" numLanes="1" width="4.0" shape="-66.490988,298.012806 -51.217343,297.761377 "/>
  <edge id="719395507" from="643604535" to="4635435917" numLanes="3" width="3.5" shape="79.439057,343.673350 64.025666,347.824814 21.958818,353.727989 "/>
  <edge id="719395509" from="643604501" to="63348949" numLanes="2" width="3.5" shape="-25.578311,353.246615 -24.759752,337.946739 -24.755340,337.823785 -24.578092,328.137040 -23.364116,305.629549 -22.485688,299.993993 "/>
  <edge id="724728511" from="6796894457" to="6796894459" numLanes="1" width="4.0" shape="25.983338,-67.427819 17.716851,-68.311813 10.707778,-69.065751 "/>
  <edge id="724728512" from="6796894459" to="6796894460" numLanes="1" width="4.0" shape="2.980267,-64.767726 -8.225339,-41.479091 "/>
  <edge id="747414953" from="6993562629" to="565073349" numLanes="1" width="4.0" shape="-221.012436,299.647924 -193.968640,298.894864 "/>
  <edge id="747449011" from="6993889174" to="6993889175" numLanes="1" width="4.0" shape="-262.481204,-347.534048 -268.918683,-344.480378 "/>