<?xml version="1.0" encoding="UTF-8"?>

<!-- generated on 2021-07-23 11:15:20 by Eclipse SUMO duarouter Version 1.9.2
<configuration xmlns:xsi="http://www.w3.org/2001/XMLSchema-instance" xsi:noNamespaceSchemaLocation="http://sumo.dlr.de/xsd/duarouterConfiguration.xsd">

    <input>
        <net-file value="sumo.net.xml"/>
        <route-files value="trips.trips.xml"/>
    </input>

    <output>
        <output-file value="sumo.rou.xml"/>
        <alternatives-output value="sumo.rou.alt.xml"/>
    </output>

    <time>
        <begin value="0"/>
        <end value="10000"/>
    </time>

    <report>
        <no-warnings value="true"/>
        <ignore-errors value="true"/>
        <no-step-log value="true"/>
    </report>

</configuration>
-->

<routes xmlns:xsi="http://www.w3.org/2001/XMLSchema-instance" xsi:noNamespaceSchemaLocation="http://sumo.dlr.de/xsd/routes_file.xsd">
    <vehicle id="283" depart="69.00" departLane="best" departPos="random" departSpeed="max">
        <route edges="8796806_5 8796806_4 8796806_3 8795651_1 8795651_2 565167466 719395506_8 719395506_7 719395506_3 719395506_4 50575480_1 50575480_2 -8795503_3 8795503_3 330310753_1 330310753_2 330310713_1 330310713_3 330310713_2 -8796216_2 -8796216_1 -397303084_2 -397303084_1 -397303085 -589533496 374711603 913105421 777809605_1 777809605_2 468422740 686997726 469146400 589533491 752702309 125568090 777809608 -589533495_2 -589533495_1 -50568411_2 -50568411_1 -397303083 397303083 -397303083 -397303086 8796216_1 8796216_2 -8796216_2 -8796216_1 -397303084_2 -397303084_1 -397303085 -589533496 374711603 913105421 777809605_1 777809605_2 468422740 686997726 468422741 468421253"/>
    </vehicle>
    <vehicle id="319" depart="79.00" departLane="best" departPos="random" departSpeed="max">
        <route edges="8796806_5 8796806_4 8796806_3 8795651_1 8795651_2 565167466 719395506_8 719395506_7 719395506_3 719395506_4 50575480_1 50575480_2 -45270121_3 -45270121_5 -45270121_2 -45270121_6 45270121_6 8796601 374711603 913105421 777809605_1 777809605_2 468422740 686997726 468422741 468421253 468421254 468421252 8797819_1 468421256_1 468421256_2 468421255 589533491 752702309 125568090 777809608 -589533495_2 -589533495_1 44465157 747414953 8797231 752009525 589533494 589533493 589533492 125568090 777809608 -589533495_2 -589533495_1 44465157 747414953 8797231 752009525 589533494 589533493 589533492 125568090 777809608 -589533495_2 -589533495_1 -50568411_2 -50568411_1 -397303083 -397303086 -397303084_2 -397303084_1 -397303085 -589533496 374711603 913105421 777809605_1 777809605_2 468422740 686997726 468422741"/>
    </vehicle>
    <vehicle id="476" depart="120.00" departLane="best" departPos="random" departSpeed="max">
        <route edges="269095741 621527175_3 621527175_8 621527175_10 621527175_11 719026490_1 565167440 564768404_2 719395506_1 719395506_9 719395506_5 719395506_11 8795651_4 621527175_9 8797131_1 8797131_2 8797131_6 8797131_5 8797131_10 8797131_9 -484878996_4 -484878996_3 484878996_3 -484878996_3 -484878996_5 -484878996_2 -484878996_1 -8796216_2 -8796216_1 -397303084_2 -397303084_1 -397303085 -589533496 374711603 913105421 777809605_1 777809605_2 468422740 686997726 468422741 468421253 468421254 468421252 8797819_1 8797819_2 8797819_3 8797399_2 8797399_3 -589533495_2 -589533495_1 -50568411_2 -50568411_1 -397303083 -397303086 -397303084_2 -397303084_1 -397303085 -589533496 374711603 913105421 777809605_1 777809605_2 468422740 686997726 469146400 589533491 752702309 125568090 777809608 -589533495_2 -589533495_1 -50568411_2 -50568411_1 -397303083 -397303086 8796216_1 8796216_2 484878996_1 484878996_2 484878996_5 484878996_3 484878996_4 8797554_1 8797554_2 8797554_4 -8797554_4 -8797554_2 8797554_2 -8797554_2 -8797554_1 -484878996_4 -484878996_3 -484878996_5 -484878996_2 -484878996_1 -8796216_2 -8796216_1 -397303084_2 -397303084_1 -397303085 -589533496 374711603 913105421 777809605_1 777809605_2 468422740 686997726 468422741 468421253 468421254 468421252 8797819_1 8797819_2 8797819_3"/>
    </vehicle>
    <vehicle id="1027" depart="257.00" departLane="best" departPos="random" departSpeed="max">
        <route edges="564768404_1 564768404_2 719395506_1 719395506_9 719395506_5 719395506_11 719395506_10 719395506_8 719395506_7 719395506_3 719395506_4 50575480_1 50575480_2 330310753_1 59432574 589533496 397303085 397303084_1 397303084_2 397303086 -397303086 -397303084_2 -397303084_1 -397303085 -589533496 374711603 913105421 777809605_1 777809605_2 468422740 686997726 469146400 589533491 752702309 125568090 777809608 -589533495_2 -589533495_1 -50568411_2 -50568411_1 -397303083 -397303086 -397303084_2 -397303084_1 -397303085 -589533496 374711603 913105421 777809605_1 777809605_2 468422740 686997726 469146400 589533491 752702309 125568090 777809608 -589533495_2 -589533495_1 -50568411_2 -50568411_1 -397303083 -397303086 -397303084_2 -397303084_1 -397303085 38015401 628473035 330310713_1 330310713_3 330310713_2 484878996_1 484878996_2 484878996_5 -484878996_5 484878996_5 484878996_3 484878996_4 -484878996_4"/>
    </vehicle>
    <vehicle id="1394" depart="349.00" departLane="best" departPos="random" departSpeed="max">
        <route edges="-45270121_3 45270121_3 330310753_1 330310753_2 330310713_1 330310713_3 330310713_2 484878996_1 484878996_2 484878996_5 484878996_3 484878996_4 8797554_1 -8797554_1 -484878996_4 -484878996_3 -484878996_5 -484878996_2 -484878996_1 -8796216_2 -8796216_1 -397303084_2 -397303084_1 -397303085 -589533496 374711603 913105421 777809605_1 777809605_2 468422740 686997726 468422741 468421253 468421254 468421252 8797819_1 468421256_1 468421256_2 468421255 589533491 752702309 125568090 777809608 -589533495_2 -589533495_1 -50568411_2 -50568411_1 -397303083 -397303086 8796216_1 8796216_2 -330310713_2 8796076_1 8796076_2 -8796076_2 -8796076_1 330310713_2 484878996_1 484878996_2 8797259_1 8797259_5 8797259_6 8797259_4 8797259_7 8797259_3 8797259_2 631833935_1"/>
    </vehicle>
    <vehicle id="1405" depart="352.00" departLane="best" departPos="random" departSpeed="max">
        <route edges="361085968_1 361085968_2 -190641518_1 719026490_1 565167440 564768404_2 719395506_1 719395506_9 719395506_5 719395506_11 719395506_10 719395506_8 719395506_7 719395506_3 719395506_4 50575480_1 50575480_2 330310753_1 330310753_2 330310713_1 330310713_3 8796076_1 -8796076_1 330310713_2 -8796216_2 -8796216_1 397303086 397303083 50568411_1 50568411_2 589533495_1 -589533495_1 -50568411_2 -50568411_1 -397303083 -397303086 -397303084_2 -397303084_1 -397303085 -589533496 -8796601 45270121_2 45270121_5 45270121_3 330310753_1 330310753_2 330310713_1 330310713_3 330310713_2 -8796216_2 -8796216_1 8796216_1 -8796216_1 -397303084_2 -397303084_1 -397303085 -589533496 -8796601 45270121_2 45270121_5 45270121_3 -8795503_3 -8795503_5 567066773"/>
    </vehicle>
    <vehicle id="1456" depart="367.00" departLane="best" departPos="random" departSpeed="max">
        <route edges="361085970 361085968_2 -190641518_1 719026490_1 565167440 564768404_2 719395506_1 719395506_9 719395506_5 719395506_11 719395506_10 719395506_8 719395506_7 719395506_3 719395506_4 50575480_1 50575480_2 330310753_1 59432574 374711603 913105421 777809605_1 777809605_2 468422740 686997726 468422741 468421253 468421254 468421252 8797819_1 8797819_2 8797819_3 8797399_2 8797399_3 -589533495_2 -589533495_1 44465157 747414953 8797231 752009525 589533490 719026486 708578563 589533498 468422742 590645027 468421273 468421268 397303085 397303084_1 397303084_2 -397303084_2 -397303084_1 -397303085 -589533496 589533496 397303085 397303084_1 397303084_2 397303086 397303083 50568411_1 50568411_2 44465157 747414953 8797231 752009525 589533490 719026486 708578563 589533498 468422742 590645027 468421273 468421268 -589533496 -8796601 45270121_2 45270121_5 45270121_3 330310753_1"/>
    </vehicle>
    <vehicle id="1503" depart="378.00" departLane="best" departPos="random" departSpeed="max">
        <route edges="565167486 -8796353_5 -8796353_7 -8796353_6 567066770 8796353_7 8796353_5 8796353_4 156723058 719395506_3 719395506_4 50575480_1 50575480_2 -45270121_3 -45270121_5 -45270121_2 8796601 374711603 913105421 777809605_1 777809605_2 468422740 686997726 468422741 468421253 468421254 468421252 8797819_1 8797819_2 8797819_3 8797399_2 40802860 180897814 8797819_3 8797399_2 8797399_3 -589533495_2 -589533495_1 44465157 747414953 8797231 752009525 589533490 719026486 708578563 589533498 468422742 590645027 468421273 468421268 397303085 397303084_1 397303084_2 397303086 -397303086 -397303084_2 -397303084_1"/>
    </vehicle>
    <vehicle id="1616" depart="408.00" departLane="best" departPos="random" departSpeed="max">
        <route edges="269095741 621527175_3 621527175_8 621527175_10 621527175_11 719026490_1 565167440 564768404_2 719395506_1 719395506_9 719395506_5 719395506_11 719395506_10 719395506_8 719395506_7 719395506_3 719395506_4 50575480_1 50575480_2 330310753_1 59432574 589533496 397303085 397303084_1 397303084_2 397303086 397303083 50568411_1 50568411_2 44465157 747414953 8797231 752009525 589533490 719026486 708578563 589533498 468422742 590645027 468421273 468421268 -589533496 -8796601 8796601 589533496 38015401 628473035 330310713_1 330310713_3 330310713_2 484878996_1 484878996_2 484878996_5 484878996_3 484878996_4 -484878996_4 -484878996_3 -484878996_5 -484878996_2 -484878996_1 -8796216_2 -8796216_1 397303086 -397303086 -397303084_2 -397303084_1 -397303085 -589533496 374711603 913105421 777809605_1 777809605_2 468422740 686997726 468422741 468421253 468421254 468421252 8797819_1"/>
    </vehicle>
    <vehicle id="1631" depart="411.00" departLane="best" departPos="random" departSpeed="max">
        <route edges="397303085 -397303085 -589533496 374711603 913105421 777809605_1 777809605_2 468422740 686997726 469146400 589533491 752702309 125568090 777809608 -589533495_2 -589533495_1 -50568411_2 -50568411_1 -397303083 -397303086 8796216_1 8796216_2 484878996_1 484878996_2 484878996_5 484878996_3 484878996_4 8797554_1 -8797554_1 -484878996_4 -484878996_3 -484878996_5 -484878996_2 -484878996_1 -8796216_2 -8796216_1 -397303084_2 -397303084_1 -397303085 -589533496 -8796601 45270121_2 45270121_5 45270121_3 330310753_1 59432574 589533496 397303085 397303084_1 397303084_2 397303086 397303083 50568411_1 50568411_2 44465157 747414953 8797231 752009525 589533490 719026486 708578563 589533498 468422742 590645027 468421273 468421268 38015401 628473035 330310713_1 330310713_3 330310713_2 -8796216_2 -8796216_1 -397303084_2 -397303084_1 -397303085 -589533496 374711603 913105421 777809605_1 777809605_2 468422740 686997726 468422741 468421253 468421254 468421252 8797819_1 8797819_2 8797819_3"/>
    </vehicle>
    <vehicle id="1661" depart="418.00" departLane="best" departPos="random" departSpeed="max">
        <route edges="719026490_1 565167440 564768404_2 719395506_1 719395506_9 719395506_5 719395506_11 8795651_4 621527175_9 8797131_1 8797131_2 8797131_6 8797131_5 8797131_10 8797131_9 -484878996_4 -484878996_3 -484878996_5 -484878996_2 -484878996_1 -8796216_2 -8796216_1 397303086 397303083 50568411_1 50568411_2 589533495_1 589533495_2 -589533495_2 -589533495_1 -50568411_2 -50568411_1 -397303083 -397303086 -397303084_2 -397303084_1 -397303085 -589533496 -8796601 45270121_2 45270121_5 45270121_3 -8795503_3 8795503_3 330310753_1 330310753_2 330310713_1 330310713_3 330310713_2 -8796216_2 -8796216_1 -397303084_2 -397303084_1 -397303085 397303085 397303084_1 397303084_2 8796216_1 8796216_2 484878996_1 484878996_2 8797259_1 8797259_5 8797259_6 45308484"/>
    </vehicle>
    <vehicle id="1714" depart="429.00" departLane="best" departPos="random" departSpeed="max">
        <route edges="-8796216_1 8796216_1 8796216_2 -330310713_2 8796076_1 8796076_2 8796076_3 8797131_10 8797131_9 8797554_1 8797554_2 8797554_4 8797554_3 -8797554_3 -8797554_4 -8797554_2 -8797554_1 -484878996_4 -484878996_3 -484878996_5 -484878996_2 -484878996_1 -8796216_2 -8796216_1 -397303084_2 -397303084_1 -397303085 -589533496 -8796601 45270121_2 45270121_5 45270121_3 -8795503_3 8795503_3 330310753_1 330310753_2 330310713_1 330310713_3 8796076_1 8796076_2 8796076_3 8797131_10 8797131_9 -484878996_4 -484878996_3 -484878996_5 -484878996_2 -484878996_1 -8796216_2 -8796216_1 -397303084_2 -397303084_1 -397303085 -589533496 374711603 913105421 777809605_1 777809605_2 468422740 686997726 469146400 589533491 752702309 125568090 777809608 -589533495_2 -589533495_1 -50568411_2 -50568411_1 -397303083 -397303086 -397303084_2 -397303084_1 -397303085 -589533496 374711603 913105421 777809605_1 777809605_2 468422740 686997726 468422741 468421253 468421254 468421252 8797819_1 8797819_2 8797819_3 8797399_2 40802860"/>
    </vehicle>
    <vehicle id="1857" depart="462.00" departLane="best" departPos="random" departSpeed="max">
        <route edges="-156723058 8796353_3 8796353_8 8795651_2 8795651_3 8795651_4 621527175_9 621527175_2 621527175_3 621527175_8 621527175_10 621527175_11 719026490_1 565167440 564768404_2 719395506_1 719395506_9 719395506_5 719395506_11 8795651_4 621527175_9 621527175_2 621527175_3 621527175_8 621527175_10 621527175_11 719026490_1 565167440 564768404_2 719395506_1 719395506_9 719395506_5 719395506_11 719395506_10 719395506_8 719395506_7 719395506_3 719395506_4 50575480_1 50575480_2 330310753_1 59432574 374711603 913105421 777809605_1 777809605_2 468422740 686997726 468422741 468421253 468421254 468421252 8797819_1 8797819_2 8797819_3 8797399_2 8797399_3 -589533495_2 -589533495_1 589533495_1 -589533495_1 -50568411_2 -50568411_1 -397303083 -397303086 8796216_1 8796216_2 484878996_1 484878996_2 484878996_5 -484878996_5"/>
    </vehicle>
    <vehicle id="2048" depart="509.00" departLane="best" departPos="random" departSpeed="max">
        <route edges="589533494 589533493 589533492 125568090 777809608 -589533495_2 -589533495_1 44465157 747414953 8797231 752009525 589533490 719026486 708578563 589533498 468422742 590645027 468421273 468421268 397303085 397303084_1 397303084_2 397303086 397303083 50568411_1 50568411_2 44465157 747414953 8797231 752009525 589533490 719026486 708578563 589533498 468422742 590645027 468421273 468421268 -589533496 -8796601 45270121_2 45270121_5 -45270121_5 -45270121_2 8796601 589533496 397303085 397303084_1 397303084_2 397303086 397303083 50568411_1 50568411_2 44465157 747414953 8797231 752009525 589533490 719026486 708578563 589533498 468422742 590645027 468421273 468421268 38015401 628473035 330310713_1 330310713_3 330310713_2 484878996_1 484878996_2 484878996_5 484878996_3 484878996_4 8797554_1 8797554_2 8797554_4 8797554_3 -8797554_3 -8797554_4 -8797554_2 -8797554_1 -484878996_4 -484878996_3 -484878996_5 -484878996_2 -484878996_1 -330310713_2 -330310713_3 -330310713_1"/>
    </vehicle>
    <vehicle id="2170" depart="537.00" departLane="best" departPos="random" departSpeed="max">
        <route edges="8796570_2 125568089_1 125568089_2 590571542_1 590571542_2 190641517 719395507 469146402 469146400 589533491 752702309 125568090 777809608 -589533495_2 -589533495_1 -50568411_2 -50568411_1 -397303083 -397303086 8796216_1 8796216_2 484878996_1 484878996_2 484878996_5 484878996_3 484878996_4 -484878996_4 -484878996_3 -484878996_5 -484878996_2 -484878996_1 -8796216_2 -8796216_1 -397303084_2 -397303084_1 -397303085 -589533496 374711603 913105421 777809605_1 777809605_2 468422740 686997726 468422741 468421253 468421254 468421252 8797819_1 8797819_2 8797819_3 8797399_2 8797399_3 -589533495_2 -589533495_1 -50568411_2 -50568411_1 -397303083 -397303086 -397303084_2 -397303084_1 -397303085 -589533496 -8796601 8796601 374711603 913105421 777809605_1 777809605_2 468422740 686997726 469146400 589533491 752702309 125568090 777809608 -589533495_2 -589533495_1 -50568411_2 -50568411_1 -397303083 -397303086 -397303084_2 -397303084_1 -397303085 -589533496 -8796601 -45270121_6 45270121_6 8796601 374711603 913105421 777809605_1"/>
    </vehicle>
    <vehicle id="2187" depart="540.00" departLane="best" departPos="random" departSpeed="max">
        <route edges="-330310713_3 330310713_3 8796076_1 8796076_2 -8796076_2 -8796076_1 330310713_2 -8796216_2 -8796216_1 397303086 397303083 50568411_1 50568411_2 44465157 747414953 8797231 752009525 589533494 589533493 589533492 125568090 777809608 -589533495_2 -589533495_1 -50568411_2 50568411_2 -50568411_2 -50568411_1 -397303083 -397303086 8796216_1 8796216_2 -330310713_2 8796076_1 8796076_2 8796076_3 8797131_10 8797131_9 -484878996_4 -484878996_3 -484878996_5 -484878996_2 -484878996_1 -8796216_2 -8796216_1 397303086 397303083 50568411_1 50568411_2 589533495_1 -589533495_1 -50568411_2 -50568411_1 -397303083 -397303086 8796216_1 8796216_2 484878996_1 484878996_2 484878996_5 484878996_3 484878996_4 8797131_3 8797131_4 747449010_1"/>
    </vehicle>
    <vehicle id="2249" depart="556.00" departLane="best" departPos="random" departSpeed="max">
        <route edges="777809608 -589533495_2 -589533495_1 -50568411_2 -50568411_1 -397303083 -397303086 -397303084_2 -397303084_1 -397303085 -589533496 374711603 913105421 777809605_1 777809605_2 468422740 686997726 468422741 468421253 468421254 468421252 8797819_1 8797819_2 8797819_3 8797399_2 8797399_3 -589533495_2 -589533495_1 -50568411_2 -50568411_1 -397303083 -397303086 -397303084_2 -397303084_1 -397303085 -589533496 374711603 913105421 777809605_1 777809605_2 468422740 686997726 469146400 589533491 752702309 125568090 777809608 -589533495_2 -589533495_1 -50568411_2 -50568411_1 -397303083 -397303086 -397303084_2 -397303084_1 -397303085 -589533496 374711603 913105421 777809605_1 777809605_2 468422740 686997726 468422741 468421253 468421254 468421252 8797819_1 8797819_2 8797819_3 8797399_2 8797399_3 -589533495_2 -589533495_1 -50568411_2 -50568411_1 -397303083 -397303086 -397303084_2 -397303084_1 -397303085 -589533496 374711603 913105421 777809605_1 777809605_2 468422740 686997726 468422741 468421253 468421254 468421252 8797819_1 468421256_1 468421256_2 468421255 589533491 752702309 125568090 777809608 -589533495_2 -589533495_1 -50568411_2 -50568411_1 -397303083 -397303086 8796216_1 8796216_2 -330310713_2 8796076_1 8796076_2 8796076_3 8797131_10 8797131_9 8797131_3 8797131_4 747449010_1"/>
    </vehicle>
    <vehicle id="2417" depart="593.00" departLane="best" departPos="random" departSpeed="max">
        <route edges="589533495_1 -589533495_1 -50568411_2 -50568411_1 -397303083 -397303086 8796216_1 8796216_2 -330310713_2 8796076_1 8796076_2 -8796076_2 -8796076_1 330310713_2 -8796216_2 -8796216_1 -397303084_2 -397303084_1 -397303085 -589533496 -8796601 45270121_2 -45270121_2 8796601 589533496 397303085 397303084_1 397303084_2 397303086 397303083 50568411_1 50568411_2 589533495_1 -589533495_1 -50568411_2 -50568411_1 -397303083 -397303086 8796216_1 8796216_2 484878996_1 484878996_2 8797259_1 8797259_5"/>
    </vehicle>
    <vehicle id="2505" depart="617.00" departLane="best" departPos="random" departSpeed="max">
        <route edges="719395506_3 206657080 435978968 719395506_7 -156723058 8796353_3 8796353_8 8795651_2 8795651_3 8795651_4 621527175_9 621527175_2 621527175_3 621527175_8 621527175_10 621527175_11 719026490_1 565167440 564768404_2 719395506_1 719395506_9 719395506_5 719395506_11 719395506_10 719395506_8 719395506_7 719395506_3 719395506_4 50575480_1 50575480_2 330310753_1 59432574 589533496 397303085 397303084_1 397303084_2 397303086 397303083 -397303083 -397303086 -397303084_2 -397303084_1 -397303085 -589533496 374711603 913105421 777809605_1 777809605_2 468422740 686997726 468422741 468421253 468421254 468421252 8797819_1 8797819_2 8797819_3 8797399_2 8797399_3 -589533495_2 -589533495_1 44465157 747414953 8797231 752009525 589533490 719026486 708578563 589533498 468422742 590645027 468421273 468421268 38015401 628473035 330310713_1 330310713_3 330310713_2 484878996_1 -484878996_1 -8796216_2 -8796216_1 397303086 397303083 50568411_1 -50568411_1"/>
    </vehicle>
    <vehicle id="2651" depart="653.00" departLane="best" departPos="random" departSpeed="max">
        <route edges="115744546 -50568411_2 -50568411_1 -397303083 -397303086 8796216_1 8796216_2 -330310713_2 8796076_1 -8796076_1 330310713_2 -8796216_2 -8796216_1 397303086 397303083 50568411_1 50568411_2 44465157 747414953 8797231 752009525 589533494 589533493 589533492 125568090 777809608 -589533495_2 -589533495_1 -50568411_2 -50568411_1 -397303083 -397303086 -397303084_2 -397303084_1 -397303085 -589533496 374711603 913105421 777809605_1 777809605_2 468422740 686997726 468422741 468421253 468421254 468421252 8797819_1 468421256_1 468421256_2 468421255 589533491 752702309 125568090 777809608 -589533495_2 -589533495_1 -50568411_2 -50568411_1 -397303083 -397303086 8796216_1 8796216_2 -330310713_2 330310713_2 -8796216_2 -8796216_1 397303086 397303083 50568411_1 50568411_2 44465157"/>
    </vehicle>
    <vehicle id="2664" depart="657.00" departLane="best" departPos="random" departSpeed="max">
        <route edges="206857465_2 206857465_3 621527175_8 621527175_10 621527175_11 719026490_1 565167440 564768404_2 719395506_1 719395506_9 719395506_5 719395506_11 719395506_10 719395506_8 719395506_7 719395506_3 719395506_4 50575480_1 50575480_2 -8795503_3 -8795503_5 8795503_5 8795503_3 330310753_1 59432574 374711603 913105421 777809605_1 777809605_2 468422740 686997726 469146400 589533491 752702309 125568090 777809608 -589533495_2 -589533495_1 -50568411_2 -50568411_1 -397303083 -397303086 -397303084_2 -397303084_1 -397303085 -589533496 374711603 913105421 777809605_1 777809605_2 468422740 686997726 469146400 589533491 752702309 125568090 777809608 -589533495_2 -589533495_1 -50568411_2 -50568411_1 -397303083 -397303086 -397303084_2 -397303084_1 -397303085 -589533496 374711603 913105421 777809605_1 777809605_2 468422740 686997726 469146400 589533491 752702309 125568090 777809608 -589533495_2 -589533495_1 -50568411_2 -50568411_1 -397303083 -397303086 8796216_1 8796216_2 484878996_1 484878996_2 8797259_1 8797259_5"/>
    </vehicle>
    <vehicle id="2949" depart="731.00" departLane="best" departPos="random" departSpeed="max">
        <route edges="468421256_2 468421255 589533491 752702309 125568090 777809608 -589533495_2 -589533495_1 -50568411_2 -50568411_1 -397303083 -397303086 8796216_1 8796216_2 484878996_1 484878996_2 484878996_5 484878996_3 484878996_4 8797554_1 8797554_2 -8797554_2 -8797554_1 -484878996_4 -484878996_3 -484878996_5 -484878996_2 -484878996_1 -8796216_2 -8796216_1 397303086 397303083 50568411_1 50568411_2 44465157 747414953 8797231 752009525 589533490 719026486 708578563 589533498 468422742 590645027 468421273 468421268 397303085 397303084_1 397303084_2 397303086 397303083 50568411_1 50568411_2 589533495_1 -589533495_1 -50568411_2 -50568411_1 -397303083 -397303086 8796216_1 8796216_2 484878996_1 484878996_2 484878996_5 484878996_3 484878996_4 8797554_1 8797554_2 8797554_4 8797554_3 -8797554_3 -8797554_4 -8797554_2 -8797554_1 -484878996_4 -484878996_3 -484878996_5 -484878996_2 -484878996_1 -8796216_2 -8796216_1 -397303084_2 -397303084_1 -397303085 -589533496 589533496 38015401 628473035 330310713_1 330310713_3 330310713_2 484878996_1 484878996_2 484878996_5 484878996_3 565167447"/>
    </vehicle>
    <vehicle id="3012" depart="746.00" departLane="best" departPos="random" departSpeed="max">
        <route edges="8797131_9 -484878996_4 -484878996_3 -484878996_5 -484878996_2 -484878996_1 -8796216_2 8796216_2 -330310713_2 -330310713_3 330310713_3 330310713_2 -8796216_2 -8796216_1 -397303084_2 -397303084_1 -397303085 -589533496 -8796601 45270121_2 45270121_5 45270121_3 330310753_1 59432574 374711603 913105421 777809605_1 777809605_2 468422740 686997726 468422741 468421253 468421254 468421252 8797819_1 468421256_1 468421256_2 468421255 589533491 752702309 125568090 777809608 -589533495_2 -589533495_1 -50568411_2 -50568411_1 -397303083 -397303086 -397303084_2 -397303084_1 -397303085 -589533496 -8796601 45270121_2 -45270121_2 8796601 589533496 397303085 397303084_1 397303084_2 397303086 -397303086"/>
    </vehicle>
    <vehicle id="3018" depart="748.00" departLane="best" departPos="random" departSpeed="max">
        <route edges="565167470_2 621527175_10 621527175_11 719026490_1 565167440 564768404_2 719395505_1 719395505_2 719395505_3 719026490_1 565167440 564768404_2 719395506_1 719395506_9 719395506_5 719395506_11 719395506_10 719395506_8 719395506_7 -156723058 -8796353_4 -8796353_5 8796353_5 8796353_4 156723058 719395506_3 719395506_4 50575480_1 50575480_2 330310753_1 59432574 589533496 397303085 397303084_1 397303084_2 397303086 397303083 50568411_1 50568411_2 44465157 747414953 8797231 752009525 589533494 589533493 589533492 125568090 777809608 -589533495_2 -589533495_1 -50568411_2 -50568411_1 -397303083 -397303086 8796216_1 8796216_2 484878996_1 484878996_2 484878996_5 484878996_3 484878996_4 -484878996_4 -484878996_3 -484878996_5 -484878996_2 -484878996_1 -8796216_2 -8796216_1 -397303084_2 -397303084_1 -397303085 -589533496 -8796601 -45270121_6 45270121_6 8796601 589533496 397303085 397303084_1 397303084_2 397303086 397303083 50568411_1 50568411_2 44465157 747414953 8797231 752009525 589533490 719026486 708578563 589533498 468422742"/>
    </vehicle>
    <vehicle id="3086" depart="764.00" departLane="best" departPos="random" departSpeed="max">
        <route edges="-190641518_1 719026490_1 565167440 564768404_2 719395506_1 719395506_9 269095741 621527175_3 621527175_8 621527175_10 621527175_11 719026490_1 565167440 564768404_2 719395506_1 719395506_9 719395506_5 719395506_11 719395506_10 719395506_8 719395506_7 719395506_3 719395506_4 50575480_1 50575480_2 330310753_1 330310753_2 330310713_1 330310713_3 8796076_1 -8796076_1 330310713_2 -8796216_2 -8796216_1 -397303084_2 -397303084_1 -397303085 -589533496 374711603 913105421 777809605_1 777809605_2 468422740 686997726 468422741 468421253 468421254 468421252 8797819_1 468421256_1 468421256_2 468421255 589533491 752702309 125568090 777809608 -589533495_2 -589533495_1 -50568411_2 -50568411_1 -397303083 -397303086 -397303084_2 -397303084_1 -397303085 -589533496 374711603 913105421 777809605_1 777809605_2 468422740 686997726 468422741 468421253 468421254 468421252 8797819_1 8797819_2 8797819_3 8797399_2 40802860"/>
    </vehicle>
    <vehicle id="3130" depart="775.00" departLane="best" departPos="random" departSpeed="max">
        <route edges="565167472_1 565167472_2 778910124 28317285_3 719395506_1 719395506_9 719395506_5 719395506_11 719395506_10 719395506_8 719395506_7 719395506_3 719395506_4 50575480_1 50575480_2 330310753_1 59432574 374711603 913105421 777809605_1 777809605_2 468422740 686997726 468422741 468421253 468421254 468421252 8797819_1 468421256_1 468421256_2 468421255 589533491 752702309 125568090 777809608 -589533495_2 -589533495_1 -50568411_2 -50568411_1 -397303083 -397303086 -397303084_2 -397303084_1 397303084_1 397303084_2 -397303084_2 -397303084_1 -397303085 -589533496 374711603 913105421 777809605_1 777809605_2 468422740 686997726 469146400 589533491 752702309 125568090 777809608 -589533495_2 -589533495_1 44465157 747414953 8797231 752009525 589533494 589533493 589533492 125568090 777809608 -589533495_2 -589533495_1 44465157 747414953 8797231 752009525 589533490 719026486 708578563 589533498 468422742 590645027 468421273 468421268"/>
    </vehicle>
    <vehicle id="3215" depart="795.00" departLane="best" departPos="random" departSpeed="max">
        <route edges="468422742 590645027 468421273 468421268 38015401 628473035 330310713_1 330310713_3 330310713_2 -8796216_2 -8796216_1 397303086 397303083 50568411_1 50568411_2 44465157 747414953 8797231 752009525 589533490 719026486 708578563 589533498 468422742 590645027 468421273 468421268 38015401 628473035 330310713_1 330310713_3 8796076_1 -8796076_1 330310713_2 -8796216_2 -8796216_1 -397303084_2 -397303084_1 -397303085 397303085 397303084_1 397303084_2 8796216_1 8796602_1 8796602_2"/>
    </vehicle>
    <vehicle id="3871" depart="960.00" departLane="best" departPos="random" departSpeed="max">
        <route edges="-156723058 156723058 719395506_3 719395506_4 50575480_1 50575480_2 330310753_1 59432574 589533496 397303085 397303084_1 397303084_2 397303086 397303083 50568411_1 50568411_2 589533495_1 589533495_2 -589533495_2 -589533495_1 44465157 747414953 8797231 752009525 589533494 589533493 589533492 125568090 777809608 -589533495_2 -589533495_1 -50568411_2 -50568411_1 -397303083 -397303086 -397303084_2 -397303084_1 -397303085 -589533496 589533496 38015401 628473035 330310713_1 330310713_3 330310713_2 484878996_1 484878996_2 484878996_5 -484878996_5 484878996_5 484878996_3 484878996_4 8797554_1 -8797554_1 -484878996_4 -484878996_3 -484878996_5 8797259_1 8797259_5 8797259_6 8797259_4 8797259_7 8797403_1 778609967"/>
    </vehicle>
    <vehicle id="3967" depart="984.00" departLane="best" departPos="random" departSpeed="max">
        <route edges="8796216_1 -8796216_1 -397303084_2 -397303084_1 -397303085 38015401 628473035 330310713_1 330310713_3 330310713_2 -8796216_2 -8796216_1 397303086 397303083 50568411_1 50568411_2 589533495_1 589533495_2 -589533495_2 -589533495_1 -50568411_2 -50568411_1 -397303083 -397303086 -397303084_2 -397303084_1 -397303085 -589533496 -8796601 45270121_2 45270121_5 45270121_3 330310753_1 330310753_2 330310713_1 330310713_3 330310713_2 484878996_1 484878996_2 484878996_5 -484878996_5 -484878996_2 -484878996_1 -8796216_2 -8796216_1 -397303084_2 -397303084_1 -397303085 397303085 397303084_1 397303084_2 397303086 397303083 50568411_1 50568411_2 44465157 747414953 8797231 752009525 589533494"/>
    </vehicle>
    <vehicle id="4058" depart="1007.00" departLane="best" departPos="random" departSpeed="max">