<?xml version="1.0" encoding="UTF-8"?>

<!-- generated on 2021-07-22 12:55:18 by Eclipse SUMO duarouter Version 1.9.2
<configuration xmlns:xsi="http://www.w3.org/2001/XMLSchema-instance" xsi:noNamespaceSchemaLocation="http://sumo.dlr.de/xsd/duarouterConfiguration.xsd">

    <input>
        <net-file value="sumo.net.xml"/>
        <route-files value="trips.trips.xml"/>
    </input>

    <output>
        <output-file value="sumo.rou.xml"/>
        <alternatives-output value="sumo.rou.alt.xml"/>
    </output>

    <time>
        <begin value="0"/>
        <end value="10000"/>
    </time>

    <report>
        <no-warnings value="true"/>
        <ignore-errors value="true"/>
        <no-step-log value="true"/>
    </report>

</configuration>
-->

<routes xmlns:xsi="http://www.w3.org/2001/XMLSchema-instance" xsi:noNamespaceSchemaLocation="http://sumo.dlr.de/xsd/routes_file.xsd">
    <vehicle id="0" depart="0.00">
        <route edges="719395509 589533498 468422742 590645027 468421273 468421268 397303085 -397303085"/>
    </vehicle>
    <vehicle id="2" depart="2.00">
        <route edges="778910141 8797130_5 719395506_5 719395506_11 8795651_4 621527175_9 8797131_1 8797131_2 8797131_6 8797131_5 8797131_10 8797131_9 8797131_3 8797131_4 747449010_1 747449010_2"/>
    </vehicle>
    <vehicle id="3" depart="3.00">
        <route edges="8796806_3 8795651_1 8795651_2 8795651_3 8795651_4 621527175_9 8797131_1 8797131_2 8797131_6 8797131_5 -8796076_3 -8796076_2"/>
    </vehicle>
    <vehicle id="5" depart="5.00">
        <route edges="361085968_2 -190641518_1 719026490_1 565167440 564768404_2 719395506_1 719395506_9 719395506_5 719395506_11 719395506_10 719395506_8 719395506_7 719395506_3 719395506_4 50575480_1 585902833"/>
    </vehicle>
    <vehicle id="11" depart="11.00">
        <route edges="468422741 468421253 468421254 468421252 8797819_1 8797819_2 8797819_3 8797399_2 40802860 180897814"/>
    </vehicle>
    <vehicle id="13" depart="13.00">
        <route edges="8796076_2 -8796076_2 -8796076_1 330310713_2 484878996_1 484878996_2 8797259_1 8797259_5 8797259_6 8797259_4 8797259_7 8797259_3 8797259_2 631833935_1 631833935_2"/>
    </vehicle>
    <vehicle id="14" depart="14.00">
        <route edges="81125885 468421256_2 468421255 589533491 752702309 125568090 777809608 -589533495_2 -589533495_1 -50568411_2 -50568411_1 -397303083 -397303086 8796216_1 8796216_2 484878996_1 484878996_2 8797259_1 8797259_5 8797259_6 8797259_4 8797259_7 8797403_1 778609967"/>
    </vehicle>
    <vehicle id="18" depart="18.00">
        <route edges="8796353_4 8796353_3 8796353_8 8795651_2 8795651_3 8795651_4 621527175_9 621527175_2"/>
    </vehicle>
    <vehicle id="21" depart="21.00">
        <route edges="-8795503_5 8795503_5 8795503_3 330310753_1 59432574 589533496 38015401"/>
    </vehicle>
    <vehicle id="23" depart="23.00">
        <route edges="719395507 469146402 469146400 589533491 752702309 125568090 777809608 -589533495_2 -589533495_1 -50568411_2 -50568411_1 -397303083 -397303086 8796216_1 8796216_2 484878996_1 484878996_2 484878996_5"/>
    </vehicle>
    <vehicle id="24" depart="24.00">
        <route edges="484878996_5 -484878996_5 -484878996_2 -484878996_1 -8796216_2 -8796216_1 -397303084_2 -397303084_1 -397303085 -589533496 -8796601 45270121_2 45270121_5 45270121_3 330310753_1"/>
    </vehicle>
    <vehicle id="25" depart="25.00">
        <route edges="435978968 719395506_7 719395506_3 719395506_4 50575480_1 50575480_2 330310753_1 59432574 589533496 397303085 397303084_1 397303084_2 397303086 397303083 50568411_1 50568411_2 44465157 747414953 8797231"/>
    </vehicle>
    <vehicle id="27" depart="27.00">
        <route edges="207634647 45270121_3 330310753_1 330310753_2 330310713_1 330310713_3 330310713_2 484878996_1 484878996_2 8797259_1 8797259_5 8797259_6 8797259_4 8797259_7 8797403_1 778609967"/>
    </vehicle>
    <vehicle id="33" depart="33.00">
        <route edges="330310753_2 330310713_1 330310713_3 330310713_2 484878996_1 484878996_2 8797259_1 8797259_5 8797259_6 8797259_4 8797259_7 8797259_3 8797259_2"/>
    </vehicle>
    <vehicle id="34" depart="34.00">
        <route edges="8796570_1 8796570_2 125568089_1 125568089_2 590571542_1 590571542_2 190641517 719395507 469146402 468422741 468421253 468421254 468421252 8797819_1 468421256_1"/>
    </vehicle>
    <vehicle id="36" depart="36.00">
        <route edges="8797130_4 8797130_5 719395506_5 719395506_11 719395506_10 719395506_8 719395506_7 -156723058 8796353_3 8796353_8 8795651_2 565167466"/>
    </vehicle>
    <vehicle id="37" depart="37.00">
        <route edges="40802860 180897814 8797819_3 8797399_2 8797399_3 -589533495_2 -589533495_1 -50568411_2 -50568411_1 -397303083 397303083"/>
    </vehicle>
    <vehicle id="41" depart="41.00">
        <route edges="-8796216_1 8796216_1 8796216_2 484878996_1 484878996_2 -484878996_2"/>
    </vehicle>
    <vehicle id="42" depart="42.00">
        <route edges="-8796353_8 8796353_8 8795651_2 8795651_3 8795651_4 621527175_9 621527175_2 621527175_3 621527175_8 621527175_10 565167469_1 565167469_2 719395505_3"/>
    </vehicle>
    <vehicle id="45" depart="45.00">
        <route edges="8797819_3 8797399_2 8797399_3 -589533495_2 589533495_2"/>
    </vehicle>
    <vehicle id="46" depart="46.00">
        <route edges="8797399_3 -589533495_2 -589533495_1 -50568411_2 -50568411_1 -397303083 -397303086 -397303084_2 -397303084_1 -397303085 -589533496 -8796601 8796601"/>
    </vehicle>
    <vehicle id="47" depart="47.00">
        <route edges="-330310713_1 330310713_1 330310713_3 330310713_2 -8796216_2 -8796216_1 -397303084_2 -397303084_1 -397303085 -589533496 374711603 913105421 777809605_1"/>
    </vehicle>
    <vehicle id="51" depart="51.00">
        <route edges="8796570_1 8796570_2 125568089_1 125568089_2 590571542_1 590571542_2 190641517 719395507 469146402 468422741 468421253 468421254 468421252 8797819_1 8797819_2 8797819_3 8797399_2 40802860"/>
    </vehicle>
    <vehicle id="56" depart="56.00">
        <route edges="780276542 8796806_5 8796806_4 8796806_3 8795651_1 8795651_2 565167466 719395506_8 719395506_7 719395506_3 719395506_4 50575480_1 50575480_2 330310753_1 59432574 589533496"/>
    </vehicle>
    <vehicle id="58" depart="58.00">
        <route edges="-397303083 -397303086 8796216_1 8796216_2 -330310713_2 8796076_1 8796076_2 8796076_3 8797131_10 8797131_9"/>
    </vehicle>
    <vehicle id="59" depart="59.00">
        <route edges="8796570_2 125568089_1 125568089_2 590571542_1 590571542_2 190641517 719395507 469146402 469146400 589533491 752702309 125568090 777809608 -589533495_2 -589533495_1 -50568411_2 -50568411_1 -397303083 -397303086 8796216_1 8796216_2"/>
    </vehicle>
    <vehicle id="60" depart="60.00">
        <route edges="468421253 468421254 468421252 8797819_1 468421256_1 468421256_2 468421255 589533491 752702309 125568090 777809608 -589533495_2 -589533495_1 -50568411_2 -50568411_1"/>
    </vehicle>
    <vehicle id="61" depart="61.00">
        <route edges="8796570_2 125568089_1 125568089_2 590571542_1 590571542_2 190641517 719395507 469146402 469146400 589533491 752702309 125568090 777809608 -589533495_2 -589533495_1 -50568411_2 -50568411_1 -397303083 -397303086 8796216_1 8796216_2 484878996_1 484878996_2 8797259_1 8797259_5 8797259_6 8797259_4"/>
    </vehicle>
    <vehicle id="63" depart="63.00">
        <route edges="-589533495_2 -589533495_1 -50568411_2 -50568411_1 -397303083 -397303086 -397303084_2 -397303084_1 -397303085 -589533496 -8796601 -45270121_6 780276549"/>
    </vehicle>
    <vehicle id="65" depart="65.00">
        <route edges="565167471 778910124 28317285_3 719395506_1 719395506_9 719395506_5 719395506_11 719395506_10 719395506_8 719395506_7 719395506_3 719395506_4 50575480_1 50575480_2 330310753_1 59432574 589533496 397303085 397303084_1 397303084_2 397303086 397303083 50568411_1 50568411_2 589533495_1 589533495_2 590831806"/>
    </vehicle>
    <vehicle id="68" depart="68.00">
        <route edges="590571542_2 190641517 719395507 469146402 469146400 589533491 752702309 125568090 777809608 -589533495_2 -589533495_1 -50568411_2 -50568411_1 -397303083 -397303086 8796216_1 8796216_2 484878996_1 484878996_2 8797259_1 8797259_5 8797259_6 8797259_4 8797259_7 8797403_1 778609967"/>
    </vehicle>
    <vehicle id="69" depart="69.00">
        <route edges="330310713_1 330310713_3 330310713_2 -8796216_2 -8796216_1 -397303084_2 -397303084_1 -397303085 -589533496 374711603 913105421 777809605_1 777809605_2 468422740 686997726 468422741 468421253 468421254 468421252 8797819_1 468421256_1 468421256_2 468421255"/>
    </vehicle>
    <vehicle id="76" depart="76.00">
        <route edges="361085972 361085971_1 361085970 361085968_2 -190641518_1 719026490_1 565167440 564768404_2 719395506_1 719395506_9 719395506_5 719395506_11 8795651_4 621527175_9 8797131_1 8797131_2 8797131_6 8797131_5 8797131_10"/>
    </vehicle>
    <vehicle id="77" depart="77.00">
        <route edges="8796353_3 8796353_8 8795651_2 565167466 719395506_8 719395506_7 719395506_3 719395506_4 50575480_1 50575480_2 330310753_1 59432574 589533496 397303085 397303084_1 397303084_2 397303086 397303083 50568411_1 50568411_2 589533495_1 589533495_2 -589533495_2"/>
    </vehicle>
    <vehicle id="79" depart="79.00">
        <route edges="361085968_1 361085968_2 -190641518_1 719026490_1 565167440 564768404_2 719395506_1 719395506_9 719395506_5 719395506_11 719395506_10 719395506_8 719395506_7 719395506_3 719395506_4 50575480_1 50575480_2 330310753_1 59432574 589533496 397303085 397303084_1 397303084_2 397303086 468421275 125568085"/>
    </vehicle>
    <vehicle id="85" depart="85.00">
        <route edges="778884312 8796076_3 8797131_10 8797131_9 8797131_3 8797131_4 747449010_1"/>
    </vehicle>
    <vehicle id="88" depart="88.00">
        <route edges="8796353_4 156723058 719395506_3 719395506_4 50575480_1 50575480_2 330310753_1 59432574 589533496 397303085 397303084_1"/>
    </vehicle>
    <vehicle id="89" depart="89.00">
        <route edges="302958496 621527175_4 621527175_6 565167464 8796076_2 8796076_3 8797131_10 8797131_9 8797554_1 45330151_1 491852320 565167454_2"/>
    </vehicle>
    <vehicle id="91" depart="91.00">
        <route edges="397303084_1 397303084_2 8796216_1 8796216_2 484878996_1 484878996_2 484878996_5 484878996_3 484878996_4 8797131_3 8797131_4 8797131_7 8797131_8"/>
    </vehicle>
    <vehicle id="95" depart="95.00">
        <route edges="8797399_2 8797399_3 -589533495_2 -589533495_1 -50568411_2 -50568411_1 -397303083 -397303086 8796216_1 8796216_2 484878996_1 484878996_2 484878996_5 484878996_3 484878996_4 8797131_3 8797131_4 8797131_7 8797131_8"/>
    </vehicle>
    <vehicle id="97" depart="97.00">
        <route edges="565167473 565167472_2 778910124 28317285_3 719395506_1 719395506_9 719395506_5 719395506_11 719395506_10 719395506_8 719395506_7 719395506_3 719395506_4 50575480_1 50575480_2 330310753_1 330310753_2"/>
    </vehicle>
    <vehicle id="104" depart="104.00">
        <route edges="190641517 719395507 469146402 469146400 589533491 752702309 125568090 777809608 -589533495_2 -589533495_1 -50568411_2 -50568411_1 -397303083 -397303086 8796216_1 8796216_2 484878996_1 484878996_2 8797259_1 8797259_5 8797259_6 45308484"/>
    </vehicle>
    <vehicle id="106" depart="106.00">
        <route edges="590571550 8796806_1 8796806_5 8796806_4 779660399_1 779660399_2"/>
    </vehicle>
    <vehicle id="109" depart="109.00">
        <route edges="190641518_1 -190641518_1 719026490_1 565167440 564768404_2 719395506_1 719395506_9 719395506_5 719395506_11 719395506_10 719395506_8 719395506_7 719395506_3 719395506_4 50575480_1 50575480_2 330310753_1 59432574 374711603 913105421 777809605_1 777809605_2 468422740 686997726 468422741 468421253 468421254 468421252 8797819_1 8797819_2 8797819_3 8797399_2 8797399_3"/>
    </vehicle>
    <vehicle id="111" depart="111.00">
        <route edges="719026486 708578563 589533498 468422742 590645027 468421273 468421268 38015401 628473035 330310713_1 330310713_3 330310713_2 484878996_1 484878996_2 484878996_5 484878996_3 484878996_4 8797131_3 8797131_4 747449010_1"/>
    </vehicle>
    <vehicle id="113" depart="113.00">
        <route edges="8796806_2 8797090_1 8797090_2 8797090_3 8797090_4 719395506_11 719395506_10 719395506_8 719395506_7 719395506_3 719395506_4 50575480_1 50575480_2 330310753_1 59432574 589533496 397303085 397303084_1 397303084_2 397303086 397303083"/>
    </vehicle>
    <vehicle id="116" depart="116.00">
        <route edges="330310713_2 484878996_1 484878996_2 484878996_5 484878996_3 484878996_4 8797131_3 565167449 772170796_1 772170796_3 772170797"/>
    </vehicle>
    <vehicle id="119" depart="119.00">
        <route edges="913105421 777809605_1 777809605_2 468422740 686997726 468422741 468421253 468421254 468421252 8797819_1 8797819_2 8797819_3"/>
    </vehicle>
    <vehicle id="121" depart="121.00">
        <route edges="435978968 719395506_7 719395506_3 719395506_4 50575480_1 50575480_2 330310753_1 330310753_2 330310713_1 330310713_3 330310713_2 484878996_1 484878996_2 8797259_1 8797259_5 8797259_6 8797259_4 8797259_7 8797259_3 8797176"/>
    </vehicle>
    <vehicle id="123" depart="123.00">
        <route edges="484878996_5 -484878996_5 -484878996_2 -484878996_1 -8796216_2 -8796216_1 -397303084_2 -397303084_1 -397303085 -589533496 374711603 913105421 777809605_1 777809605_2 468422740 686997726 468422741 468421253 468421254 468421252 8797819_1 8797819_2 8797819_3 8797399_2 40802860 180897814"/>
    </vehicle>
    <vehicle id="124" depart="124.00">
        <route edges="8795651_1 8795651_2 8795651_3 8795651_4 621527175_9 8797131_1 206857465_1 771992002"/>
    </vehicle>
    <vehicle id="125" depart="125.00">
        <route edges="719395506_11 8795651_4 621527175_9 8797131_1 8797131_2 8797131_6 8797131_5 8797131_10 8797131_9 8797554_1 8797554_2 8797554_4"/>
    </vehicle>
    <vehicle id="130" depart="130.00">
        <route edges="-8796353_7 8796353_7 8796353_5 8796353_4 156723058 719395506_3 719395506_4 50575480_1 50575480_2 330310753_1 59432574"/>
    </vehicle>
    <vehicle id="131" depart="131.00">
        <route edges="45270121_2 45270121_5 45270121_3 330310753_1 330310753_2 330310713_1 330310713_3 330310713_2 484878996_1 484878996_2 8797259_1 8797259_5 8797259_6 8797259_4 8797259_7 8797259_3 8797259_2 631833935_1 631833935_2"/>
    </vehicle>
    <vehicle id="132" depart="132.00">
        <route edges="777809608 -589533495_2 -589533495_1 -50568411_2 -50568411_1 -397303083 -397303086 8796216_1 8796216_2 -330310713_2 330310713_2"/>
    </vehicle>
    <vehicle id="133" depart="133.00">
        <route edges="719395507 469146402 468422741 468421253 468421254 468421252 8797819_1 8797819_2 8797819_3 8797399_2 40802860"/>
    </vehicle>
    <vehicle id="134" depart="134.00">
        <route edges="565167486 8796353_4 8796353_3 8796353_8 8795651_2 8795651_3 8795651_4 621527175_9 8797131_1 8797131_2 8797131_6 8797131_5 8797131_10"/>
    </vehicle>
    <vehicle id="135" depart="135.00">
        <route edges="8796076_2 -8796076_2 -8796076_1 330310713_2 -8796216_2 -8796216_1"/>
    </vehicle>
    <vehicle id="139" depart="139.00">
        <route edges="778910143 8797090_2 8797090_3 8797090_4 719395506_11 719395506_10 719395506_8 719395506_7 719395506_3 719395506_4 50575480_1 50575480_2 330310753_1 59432574"/>
    </vehicle>
    <vehicle id="142" depart="142.00">
        <route edges="8797090_2 8797090_3 8797090_4 719395506_11 719395506_10 719395506_8 719395506_7 719395506_3 719395506_4 50575480_1 50575480_2 330310753_1 59432574 589533496 397303085 397303084_1 397303084_2 397303086 397303083 50568411_1 50568411_2 44465157 747414953 8797231 752009525 589533490 719026486 708578563 589533498 468422742 590645027"/>
    </vehicle>
    <vehicle id="144" depart="144.00">
        <route edges="181329875_1 181329875_2 8797131_9 8797554_1 8797554_2 8797554_4 -8797554_4"/>
    </vehicle>
    <vehicle id="147" depart="147.00">
        <route edges="8797090_1 8797090_2 8797090_3 8797090_4 719395506_11 719395506_10 719395506_8 719395506_7 719395506_3 719395506_4 50575480_1 50575480_2 330310753_1"/>
    </vehicle>
    <vehicle id="151" depart="151.00">
        <route edges="190641517 719395507 469146402 469146400 589533491 752702309 125568090 777809608 -589533495_2 -589533495_1 -50568411_2 -50568411_1 -397303083 -397303086 8796216_1 8796216_2 -330310713_2 8796076_1 8796076_2 8796076_3 8797131_10 8797131_9"/>
    </vehicle>
    <vehicle id="154" depart="154.00">
        <route edges="-397303084_2 397303084_2 8796216_1 8796216_2 484878996_1 778884298"/>
    </vehicle>
    <vehicle id="155" depart="155.00">
        <route edges="468421274 -397303086 8796216_1 8796216_2 484878996_1 484878996_2 8797259_1 8797259_5 8797259_6 8797259_4 8797259_7 8797259_3 8797176"/>
    </vehicle>
    <vehicle id="160" depart="160.00">
        <route edges="361085971_1 361085970 361085968_2 -190641518_1 719026490_1 565167440 564768404_2 719395506_1 719395506_9 719395506_5 719395506_11 8795651_4"/>
    </vehicle>
    <vehicle id="161" depart="161.00">
        <route edges="565167464 -8796076_1 330310713_2 -8796216_2 -8796216_1 -397303084_2 -397303084_1 -397303085 -589533496 374711603 913105421 777809605_1 777809605_2 468422740 686997726 468422741 468421253"/>
    </vehicle>
    <vehicle id="164" depart="164.00">
        <route edges="468421273 468421268 397303085 397303084_1 397303084_2 8796216_1 8796602_1"/>
    </vehicle>
    <vehicle id="171" depart="171.00">
        <route edges="-8796353_8 8796353_8 8795651_2 8795651_3 8795651_4 621527175_9 621527175_2 621527175_3 621527175_8 621527175_10 621527175_11 719026490_1 565167440"/>
    </vehicle>
    <vehicle id="172" depart="172.00">
        <route edges="778884312 -8796076_2 -8796076_1 330310713_2 -8796216_2 -8796216_1 -397303084_2 -397303084_1 -397303085 -589533496 374711603 913105421 777809605_1 777809605_2 468422740 686997726 468422741 468421253 468421254 468421252 8797819_1 468421256_1"/>
    </vehicle>
    <vehicle id="173" depart="173.00">
        <route edges="719395506_1 719395506_9 719395506_5 719395506_11 719395506_10 719395506_8 719395506_7 719395506_3 719395506_4 50575480_1 50575480_2 330310753_1 59432574 589533496 397303085 397303084_1 397303084_2 397303086 397303083 50568411_1 50568411_2 44465157 747414953 8797231 752009525 589533490"/>
    </vehicle>
    <vehicle id="175" depart="175.00">
        <route edges="397303085 397303084_1 397303084_2 8796216_1 8796216_2 484878996_1 484878996_2 484878996_5 484878996_3 484878996_4 8797131_3 565167449 772170796_1 772170796_3 772170796_2"/>
    </vehicle>
    <vehicle id="176" depart="176.00">
        <route edges="-156723058 8796353_3 8796353_8 8795651_2 8795651_3 8795651_4 621527175_9 8797131_1 8797131_2 8797131_6 8797131_5 8797131_10 8797131_9 8797131_3 8797131_4 8797131_7 8797131_8"/>
    </vehicle>
    <vehicle id="178" depart="178.00">
        <route edges="778910143 8797090_2 8797090_3 8797090_4 719395506_11 719395506_10 719395506_8 719395506_7 719395506_3 719395506_4 50575480_1 50575480_2 330310753_1 59432574 589533496 397303085 397303084_1 397303084_2 397303086 397303083 50568411_1 50568411_2 44465157 747414953"/>
    </vehicle>
    <vehicle id="179" depart="179.00">
        <route edges="484878996_3 -484878996_3 -484878996_5 -484878996_2 -484878996_1 -8796216_2 -8796216_1 397303086 397303083 50568411_1 50568411_2 589533495_1 589533495_2 -589533495_2"/>
    </vehicle>
    <vehicle id="186" depart="186.00">
        <route edges="8797131_9 8797131_3 8797131_4 747449010_1 747449010_2"/>
    </vehicle>
    <vehicle id="187" depart="187.00">
        <route edges="8797090_2 8797090_3 8797090_4 719395506_11 8795651_4 621527175_9 621527175_2 621527175_3 621527175_8 621527175_10 621527175_11 719026490_1"/>
    </vehicle>
    <vehicle id="189" depart="189.00">
        <route edges="-156723058 156723058 719395506_3 719395506_4 50575480_1 50575480_2 -45270121_3 -45270121_5 45270121_5"/>
    </vehicle>
    <vehicle id="193" depart="193.00">
        <route edges="565167470_2 621527175_10 621527175_11 719026490_1 565167440 564768404_2 719395506_1 719395506_9 719395506_5 719395506_11 8795651_4 621527175_9 8797131_1"/>
    </vehicle>
    <vehicle id="195" depart="195.00">
        <route edges="-8796076_2 -8796076_1 330310713_2 -8796216_2 -8796216_1 397303086 397303083 50568411_1 50568411_2 44465157 747414953 8797231 752009525 589533494 589533493 589533492"/>
    </vehicle>
    <vehicle id="196" depart="196.00">
        <route edges="719395506_9 719395506_5 719395506_11 719395506_10 719395506_8 719395506_7 719395506_3 719395506_4 50575480_1 50575480_2 330310753_1 59432574 374711603 913105421 777809605_1 777809605_2 468422740"/>
    </vehicle>
    <vehicle id="201" depart="201.00">
        <route edges="8796076_3 8797131_10 8797131_9 -484878996_4 -484878996_3 -484878996_5 -484878996_2 -484878996_1 -8796216_2 -8796216_1 -397303084_2 -397303084_1 -397303085 -589533496"/>
    </vehicle>
    <vehicle id="202" depart="202.00">
        <route edges="564768404_1 564768404_2 719395505_1 719395505_2 719395505_3"/>
    </vehicle>
    <vehicle id="208" depart="208.00">
        <route edges="28317285_1 28317285_2 28317285_3 719395506_1 719395506_9 719395506_5 719395506_11 719395506_10 719395506_8 719395506_7 719395506_3 719395506_4 50575480_1 50575480_2 330310753_1 59432574 374711603 913105421 777809605_1 777809605_2 468422740 686997726 468422741 468421253 468421254 468421252 8797819_1 8797819_2 8797819_3 8797399_2"/>
    </vehicle>
    <vehicle id="209" depart="209.00">
        <route edges="589533491 752702309 125568090 777809608 -589533495_2 -589533495_1 -50568411_2 -50568411_1 -397303083 -397303086 8796216_1 8796216_2 484878996_1 484878996_2 484878996_5 484878996_3 -484878996_3"/>
    </vehicle>
    <vehicle id="213" depart="213.00">
        <route edges="719026490_1 565167440 564768404_2 719395506_1 719395506_9 719395506_5 719395506_11 8795651_4 621527175_9 8797131_1 8797131_2 8797131_6 8797131_5 8797131_10 8797131_9 -484878996_4 -484878996_3 -484878996_5 8797259_1 8797259_5"/>
    </vehicle>
    <vehicle id="214" depart="214.00">
        <route edges="8796806_3 8795651_1 8795651_2 565167466 719395506_8 719395506_7 719395506_3 719395506_4 50575480_1 50575480_2 330310753_1 59432574 589533496 397303085 397303084_1 397303084_2 397303086 397303083 50568411_1 50568411_2 44465157 747414953 8797231 752009525 589533490 719026486"/>
    </vehicle>
    <vehicle id="216" depart="216.00">
        <route edges="8795503_5 8795503_3 330310753_1 59432574 589533496 397303085 397303084_1 397303084_2 397303086 397303083 50568411_1 50568411_2 589533495_1 589533495_2 590831806"/>
    </vehicle>
    <vehicle id="221" depart="221.00">
        <route edges="719395506_7 719395506_3 719395506_4 50575480_1 50575480_2 330310753_1 59432574 589533496 397303085 397303084_1 397303084_2 397303086 397303083 50568411_1 50568411_2 44465157"/>
    </vehicle>
    <vehicle id="224" depart="224.00">
        <route edges="374711603 913105421 777809605_1 777809605_2 468422740 686997726 469146400 589533491 752702309"/>
    </vehicle>
    <vehicle id="227" depart="227.00">
        <route edges="564768404_1 564768404_2 719395506_1 719395506_9 719395506_5 719395506_11 719395506_10 719395506_8 719395506_7 719395506_3 719395506_4 50575480_1 50575480_2 330310753_1 330310753_2 330310713_1 330310713_3"/>
    </vehicle>
    <vehicle id="228" depart="228.00">
        <route edges="564768404_2 719395506_1 719395506_9 719395506_5 719395506_11 8795651_4 621527175_9 8797131_1 8797131_2 8797131_6 8797131_5 8797131_10"/>
    </vehicle>
    <vehicle id="233" depart="233.00">
        <route edges="8796216_1 8796216_2 484878996_1 484878996_2 8797259_1 8797259_5 8797259_6"/>
    </vehicle>
    <vehicle id="235" depart="235.00">
        <route edges="590645027 468421273 468421268 38015401 628473035 330310713_1 330310713_3 330310713_2 484878996_1 484878996_2 8797259_1 8797259_5 8797259_6 8797259_4 8797259_7 8797259_3 8797259_2 631833935_1 631833935_2"/>
    </vehicle>
    <vehicle id="237" depart="237.00">
        <route edges="468422740 686997726 469146400 589533491 752702309 125568090 777809608 -589533495_2 -589533495_1 -50568411_2 -50568411_1 -397303083 -397303086 8796216_1 8796216_2 484878996_1 484878996_2 484878996_5 484878996_3 484878996_4 8797131_3 8797131_4 747449010_1 747449010_2 747449011"/>
    </vehicle>
    <vehicle id="239" depart="239.00">
        <route edges="565167469_1 565167469_2 719395505_3 719026490_1 565167440 564768404_2 719395506_1 719395506_9 719395506_5 719395506_11 8795651_4 621527175_9 8797131_1 8797131_2 8797131_6 8797131_5 8797131_10 8797131_9 8797554_1 8797554_2 8797554_4 -8797554_4"/>
    </vehicle>
    <vehicle id="240" depart="240.00">
        <route edges="719395506_6 468421267 468421266 59432574 589533496 397303085 397303084_1 397303084_2 397303086 -397303086"/>
    </vehicle>
    <vehicle id="246" depart="246.00">
        <route edges="778910162 8797090_4 719395506_11 719395506_10 719395506_8 719395506_7 719395506_3 719395506_4 50575480_1 50575480_2 330310753_1 330310753_2 330310713_1 330310713_3 330310713_2 -8796216_2 8796216_2"/>
    </vehicle>
    <vehicle id="247" depart="247.00">
        <route edges="397303084_2 -397303084_2 -397303084_1 -397303085 -589533496 -8796601 45270121_2 45270121_5 45270121_3 -8795503_3 -8795503_5"/>
    </vehicle>
    <vehicle id="257" depart="257.00">
        <route edges="206857465_3 621527175_8 621527175_10 621527175_11 719026490_1 565167440 564768404_2 719395506_1 719395506_9 719395506_5 719395506_11 719395506_10 719395506_8 719395506_7 719395506_3 719395506_4 50575480_1 50575480_2 330310753_1 59432574 374711603 913105421 777809605_1 777809605_2 468422740 686997726"/>
    </vehicle>
    <vehicle id="258" depart="258.00">
        <route edges="778910144 8797090_3 8797090_4 719395506_11 719395506_10 719395506_8 719395506_7 -156723058 -8796353_4 -8796353_5 -8796353_7"/>
    </vehicle>
    <vehicle id="260" depart="260.00">
        <route edges="-8796353_8 -8796353_3 156723058 719395506_3 719395506_4 50575480_1 50575480_2 330310753_1 59432574 589533496 397303085 397303084_1 397303084_2 397303086 -397303086"/>
    </vehicle>
    <vehicle id="261" depart="261.00">
        <route edges="468421255 589533491 752702309 125568090 777809608 -589533495_2 -589533495_1 -50568411_2 -50568411_1 -397303083 -397303086 8796216_1 8796216_2 484878996_1 484878996_2 484878996_5 484878996_3 484878996_4 8797131_3 8797131_4 747449010_1 747449010_2"/>
    </vehicle>
    <vehicle id="266" depart="266.00">
        <route edges="8796076_3 8797131_10 8797131_9 -484878996_4 -484878996_3 -484878996_5 8797259_1 8797259_5 8797259_6 8797259_4 8797259_7 8797259_3 8797259_2 631833935_1"/>
    </vehicle>
    <vehicle id="268" depart="268.00">
        <route edges="565167494_1 565167492 330310713_3 330310713_2 -8796216_2 -8796216_1 397303086 397303083 50568411_1 50568411_2 44465157 747414953 8797231 752009525 589533490 719026486 708578563 589533498 468422742"/>
    </vehicle>
    <vehicle id="269" depart="269.00">
        <route edges="-8796353_7 8796353_7 8796353_5 8796353_4 156723058 719395506_3 719395506_4 50575480_1 50575480_2 330310753_1 59432574 374711603 913105421 777809605_1 777809605_2 468422740 686997726 468422741 468421253 468421254 468421252 8797819_1 8797819_2 8797819_3 8797399_2 8797399_3"/>
    </vehicle>
    <vehicle id="270" depart="270.00">
        <route edges="719395507 469146402 469146400 589533491 752702309 125568090 777809608 -589533495_2 -589533495_1 -50568411_2 -50568411_1 -397303083 -397303086 8796216_1"/>
    </vehicle>
    <vehicle id="272" depart="272.00">
        <route edges="778910125 8797130_4 8797130_5 719395506_5 719395506_11 8795651_4 621527175_9 8797131_1 8797131_2 8797131_6 8797131_5 8797131_10 8797131_9 -484878996_4 -484878996_3 -484878996_5 8797259_1 8797259_5 8797259_6 8797259_4 8797259_7 8797403_1"/>
    </vehicle>
    <vehicle id="275" depart="275.00">
        <route edges="565167440 564768404_2 719395506_1 719395506_9 719395506_5 719395506_11 8795651_4 621527175_9 8797131_1 8797131_2 8797131_6 8797131_5 8797131_10 8797131_9 -484878996_4 -484878996_3 -484878996_5 8797259_1 8797259_5 8797259_6 8797259_4 8797259_7 8797403_1 778609967"/>
    </vehicle>
    <vehicle id="277" depart="277.00">
        <route edges="8795503_5 8795503_3 330310753_1 330310753_2 330310713_1 330310713_3 8796076_1 8796076_2 -8796076_2"/>
    </vehicle>
    <vehicle id="279" depart="279.00">
        <route edges="565167467 565167470_2 621527175_10 621527175_11 719026490_1 565167440 564768404_2 719395506_1 719395506_9 719395506_5 719395506_11 719395506_10 719395506_8 719395506_7 719395506_3 719395506_4 50575480_1 50575480_2 330310753_1 59432574 589533496 397303085 397303084_1 397303084_2 397303086 397303083 50568411_1 50568411_2 44465157 747414953 8797231 752009525 589533490 719026486 708578563"/>
    </vehicle>
    <vehicle id="285" depart="285.00">
        <route edges="-330310713_1 330310713_1 330310713_3 330310713_2 484878996_1 484878996_2 8797259_1 8797259_5 8797259_6 8797259_4"/>
    </vehicle>
    <vehicle id="286" depart="286.00">
        <route edges="-8796076_2 -8796076_1 330310713_2 -8796216_2 -8796216_1 -397303084_2 -397303084_1 -397303085 -589533496 374711603 913105421 777809605_1"/>
    </vehicle>
    <vehicle id="287" depart="287.00">
        <route edges="565167486 8796353_4 156723058 719395506_3 719395506_4 50575480_1 50575480_2 -45270121_3 -45270121_5 780276544"/>
    </vehicle>
    <vehicle id="292" depart="292.00">
        <route edges="621527175_9 621527175_2 621527175_3 621527175_8 621527175_10 565167469_1 565167469_2"/>
    </vehicle>
    <vehicle id="294" depart="294.00">
        <route edges="778910144 8797090_3 8797090_4 719395506_11 719395506_10 719395506_8 719395506_7 719395506_3 719395506_4 50575480_1 50575480_2 330310753_1 59432574 589533496 397303085 397303084_1 397303084_2 397303086 468421275"/>
    </vehicle>