<?xml version='1.0' encoding='UTF-8'?>
<nodes>
  <node id="1057847670" x="306.750445" y="414.711773" shape="306.457293,410.249256 310.144568,411.799741 308.594082,415.487016 308.586356,415.505141 306.999620,419.176962 303.327799,417.590226 302.344757,413.943714 304.721480,410.726387 306.457293,410.249256 306.457293,410.249256"/>
  <node id="1422600187" x="130.845934" y="371.999861" shape="133.831223,368.669989 135.301005,372.390169 134.238660,374.913520 130.550643,376.462237 126.862851,374.033344 126.829298,370.033484 133.831223,368.669989 133.831223,368.669989"/>
  <node id="1422600205" x="96.231026" y="424.695948" shape="94.879513,420.432920 98.830541,421.056920 99.902019,422.141774 100.476962,426.100238 96.911506,429.116010 93.103265,427.892369 94.879513,420.432920 94.879513,420.432920"/>
  <node id="1422600216" x="172.172797" y="543.65512" shape="171.205727,539.288797 176.249427,545.493893 173.147757,548.019688 170.260694,547.697874 167.791332,544.551090 168.099496,541.808983 171.205727,539.288797 171.205727,539.288797"/>
  <node id="1422601300" x="203.058369" y="433.735119" shape="203.089888,429.263094 206.720388,436.302144 203.201960,438.204949 200.176690,437.155050 198.593417,433.481735 199.499660,431.026689 203.089888,429.263094 203.089888,429.263094"/>
  <node id="1422601301" x="197.133102" y="419.247379" shape="198.169301,414.896943 200.336998,422.367484 196.559356,423.682558 193.950277,422.388975 192.710130,418.586076 194.274473,415.808158 198.169301,414.896943 198.169301,414.896943"/>
  <node id="1422601312" x="215.653125" y="458.320124" shape="215.452991,453.852468 219.689554,455.626906 219.392560,459.615865 214.340429,462.057998 211.035594,459.804543 211.958920,455.799638 215.452991,453.852468 215.452991,453.852468"/>
  <node id="1422601313" x="193.058734" y="391.397137" shape="191.160176,387.348004 195.988570,388.018371 197.519649,391.713746 195.686983,395.015467 191.741020,395.670734 188.680293,390.486504 191.160176,387.348004 191.160176,387.348004"/>
  <node id="1422617306" x="32.769959" y="471.64188" shape="34.459822,465.261687 36.914829,468.419683 33.623708,473.450502 30.006465,475.158000 28.625089,474.864077 26.170082,471.706080 34.459822,465.261687 34.459822,465.261687"/>
  <node id="1422617307" x="17.784367" y="478.715743" shape="18.439045,473.441144 20.547861,475.199623 22.255360,478.816866 18.638116,480.524365 18.152006,480.681663 14.220166,481.416941 12.643350,477.366691 18.439045,473.441144 18.439045,473.441144"/>
  <node id="1637316080" x="150.056019" y="-151.145754" shape="147.674761,-155.897555 154.449672,-154.136709 153.858020,-148.791016 152.444465,-146.397562 145.666897,-148.148154 146.268707,-153.524044 147.674761,-155.897555 147.674761,-155.897555"/>
  <node id="1689414009" x="438.198393" y="-203.856017"/>
  <node id="1689414026" x="415.163673" y="-130.894963" shape="414.516738,-135.320059 418.315589,-134.067568 417.063098,-130.268718 417.037948,-130.197041 415.642104,-126.448492 411.893555,-127.844335 410.974394,-129.329735 411.397923,-133.307249 414.516738,-135.320059 414.516738,-135.320059"/>
  <node id="1689414098" x="225.004698" y="-145.501818" shape="221.164191,-147.793217 229.123899,-147.243135 228.869272,-143.251248 228.717023,-141.233488 220.736368,-141.789493 220.867275,-143.804252 221.164191,-147.793217 221.164191,-147.793217"/>
  <node id="1689414101" x="218.980623" y="-59.878374" shape="215.273151,-64.150920 223.253169,-63.585846 222.616668,-52.682599 214.627179,-53.092542 212.019487,-55.811116 211.942409,-63.810745 215.273151,-64.150920 215.273151,-64.150920"/>
  <node id="1689414109" x="209.458909" y="267.634076" shape="210.288173,262.354415 230.915757,266.058318 231.795186,269.960446 229.639485,277.067758 207.688237,272.576466 206.746830,272.239195 210.288173,262.354415 210.288173,262.354415"/>
  <node id="1689414122" x="200.273372" y="103.336024"/>
  <node id="1689414155" x="153.729878" y="105.522252" shape="150.189310,101.110407 155.890318,101.606579 158.067586,101.891235 157.360895,109.859960 153.376533,109.506615 153.294239,109.498459 149.318033,109.062820 150.189310,101.110407 150.189310,101.110407"/>
  <node id="1689414224" x="129.888251" y="-65.392173" shape="128.026515,-72.993748 134.852469,-71.442507 137.079455,-69.037250 136.679544,-61.047251 132.388663,-60.701977 125.571474,-62.291296 128.026515,-72.993748 128.026515,-72.993748"/>
  <node id="1689414249" x="113.224557" y="4.565695" shape="110.055849,2.774247 116.861395,4.412701 114.575938,17.960611 107.668097,16.828474 105.659400,13.099578 110.055849,2.774247 110.055849,2.774247"/>
  <node id="1689414290" x="93.994395" y="98.419436" shape="92.210605,90.799194 99.020315,92.420259 101.337239,95.090376 100.590414,103.055441 96.476293,103.119455 89.665424,101.503267 89.739928,99.797664 90.339133,95.842799 92.210605,90.799194 92.210605,90.799194"/>
  <node id="1689414301" x="89.532136" y="181.541098" shape="84.105130,168.356369 92.506602,168.410883 93.163745,181.293278 93.029306,181.400370 86.386901,184.012434 78.542553,174.029040 84.105130,168.356369 84.105130,168.356369"/>
  <node id="1689414330" x="44.805956" y="-161.089344" shape="41.712065,-165.411130 48.678803,-164.729544 48.977158,-162.702129 48.598905,-158.720053 47.507085,-156.511801 40.627479,-157.804480 41.712065,-165.411130 41.712065,-165.411130"/>
  <node id="1689414563" x="-234.430994" y="469.625734" shape="-232.614364,465.539189 -230.318036,467.869722 -230.558410,471.862493 -232.113776,473.450718 -236.100650,473.774499 -236.424431,469.787625 -236.428938,469.716391 -236.610252,465.720502 -232.614364,465.539189 -232.614364,465.539189"/>
  <node id="1689414566" x="-235.230639" y="452.002755" shape="-233.589515,447.842621 -231.169147,450.130783 -231.296166,454.128766 -233.051381,455.907987 -237.047269,456.089300 -237.574072,448.193776 -233.589515,447.842621 -233.589515,447.842621"/>
  <node id="1689414568" x="-243.746692" y="355.668826" shape="-240.305843,348.377697 -239.717723,348.685459 -239.775730,362.685339 -250.678775,362.736090 -250.813956,348.736743 -240.305843,348.377697 -240.305843,348.377697"/>
  <node id="1917532112" x="-71.521946" y="-300.519494" shape="-73.357194,-304.597712 -69.360520,-304.434623 -67.376590,-302.197596 -67.692251,-298.210070 -75.658233,-298.819163 -75.363984,-302.808325 -73.357194,-304.597712 -73.357194,-304.597712"/>
  <node id="2166980534" x="124.415061" y="-41.915604" shape="121.914649,-46.605800 128.731838,-45.016481 127.823655,-41.120944 127.817834,-41.096377 126.881575,-37.207493 120.076028,-38.845947 119.997720,-41.217678 121.206316,-45.030721 121.914649,-46.605800 121.914649,-46.605800"/>
  <node id="2166980540" x="135.833302" y="-91.552293" shape="133.393847,-96.274481 140.189880,-94.596999 138.359856,-86.876127 131.533902,-88.427368 131.438125,-90.726208 132.535327,-94.572784 133.393847,-96.274481 133.393847,-96.274481"/>
  <node id="2166980552" x="110.174432" y="-46.529265" shape="111.845161,-50.677598 114.601048,-47.165713 113.339561,-43.369841 105.872770,-45.306276 106.615044,-49.236802 107.858203,-50.354848 111.845161,-50.677598 111.845161,-50.677598"/>
  <node id="2169050240" x="55.443928" y="-291.25503" shape="54.867655,-295.689882 58.646045,-294.376960 59.616353,-292.864648 59.235077,-288.882861 55.253290,-289.264136 55.240874,-289.265364 51.261543,-289.671472 51.667651,-293.650803 54.867655,-295.689882 54.867655,-295.689882"/>
  <node id="2169050287" x="112.424887" y="-368.015763" shape="111.286012,-373.207387 117.419390,-369.833713 113.564198,-362.824234 107.430537,-366.197393 107.952757,-368.022824 109.747258,-371.597704 111.286012,-373.207387 111.286012,-373.207387"/>
  <node id="2178846525" x="89.358508" y="126.510644" shape="86.203455,122.233304 93.179183,122.815723 93.511532,124.851609 93.177550,128.837642 92.510788,130.790029 85.535438,130.203087 86.203455,122.233304 86.203455,122.233304"/>
  <node id="2178846530" x="119.741892" y="100.723776" shape="116.107118,96.389215 120.091785,96.739109 120.327894,96.766934 124.284736,97.352935 123.112733,105.266620 115.407331,104.358550 116.107118,96.389215 116.107118,96.389215"/>
  <node id="2563891125" x="92.741134" y="-374.170913" shape="91.157710,-378.353349 96.899827,-375.815683 96.552166,-371.830820 92.842340,-369.699922 89.225065,-371.407354 88.445131,-375.413635 91.157710,-378.353349 91.157710,-378.353349"/>
  <node id="2743765102" x="91.514447" y="-328.115825" shape="90.014964,-333.214997 96.369447,-330.278919 95.009414,-325.325627 93.013569,-323.016547 86.659294,-325.953075 90.014964,-333.214997 90.014964,-333.214997"/>
  <node id="3072401975" x="108.864613" y="14.505496" shape="107.266163,9.436476 113.676590,12.248313 110.469135,19.572597 104.055344,16.768443 105.523863,11.532385 107.266163,9.436476 107.266163,9.436476"/>
  <node id="3072401977" x="20.416426" y="-8.578608" shape="17.614378,-13.095081 24.520977,-11.955391 24.753481,-9.669459 23.891340,-5.763475 19.985356,-6.625616 16.729793,-7.753605 17.614378,-13.095081 17.614378,-13.095081"/>
  <node id="3271391131" x="155.654726" y="346.166881" shape="162.303119,343.200591 162.866684,347.160691 161.387116,351.145328 159.141752,350.553820 154.920334,348.278911 154.636320,347.888174 154.405737,344.312150 162.303119,343.200591 162.303119,343.200591"/>
  <node id="3271391133" x="141.276575" y="367.276658" shape="141.263083,362.804542 143.821316,363.599119 145.745451,367.105928 138.736117,370.957157 136.807901,367.452592 137.690788,364.604182 141.263083,362.804542 141.263083,362.804542"/>
  <node id="3271391135" x="134.729935" y="352.325902" shape="137.835417,349.107831 139.167681,352.879444 137.835932,355.543476 134.019473,356.741244 131.586929,355.507335 130.298985,351.720357 137.835417,349.107831 137.835417,349.107831"/>
  <node id="3656058635" x="67.111269" y="-515.92857" shape="65.144843,-521.232641 72.373820,-518.003555 69.186254,-510.666019 63.968337,-512.747064 61.807198,-513.962144 65.144843,-521.232641 65.144843,-521.232641"/>
  <node id="3656058641" x="34.965719" y="-465.731977" shape="34.357932,-470.162620 38.145561,-468.876592 36.710042,-461.614048 32.717970,-461.865761 30.854774,-463.971258 31.090577,-467.964302 34.357932,-470.162620 34.357932,-470.162620"/>
  <node id="3656058643" x="33.718039" y="-445.944262"/>
  <node id="3656058649" x="12.91631" y="-467.03407" shape="11.138891,-471.137822 15.132860,-470.918256 17.027255,-468.794789 16.791452,-464.801745 14.671421,-462.920727 10.678702,-463.161976 11.138891,-471.137822 11.138891,-471.137822"/>
  <node id="3656058650" x="11.73127" y="-447.421392"/>
  <node id="3656999810" x="-105.600958" y="-403.804707"/>
  <node id="3791567197" x="312.045526" y="-391.89183" shape="309.110013,-395.265665 316.486155,-392.421753 315.133841,-388.657281 309.941961,-387.945311 307.626172,-391.206771 307.585150,-391.567721 309.110013,-395.265665 309.110013,-395.265665"/>
  <node id="4507223014" x="45.963615" y="84.03036"/>
  <node id="4629566183" x="14.606399" y="448.277197" shape="18.751269,445.055000 19.365021,445.844500 11.075280,452.288893 10.461529,451.499394 11.226447,449.628464 16.762293,445.344260 18.751269,445.055000 18.751269,445.055000"/>
  <node id="4629566184" x="-4.232271" y="408.379678" shape="0.488624,405.874552 0.783801,406.829995 -0.593021,408.303111 -7.281750,410.367310 -9.248343,409.929361 -9.543521,408.973919 0.488624,405.874552 0.488624,405.874552"/>
  <node id="4629566185" x="-9.334273" y="389.560871" shape="-6.123776,387.845438 -4.201945,388.455560 -3.991410,389.433146 -14.256065,391.643768 -14.466601,390.666182 -12.966433,389.321260 -6.123776,387.845438 -6.123776,387.845438"/>
  <node id="4629566186" x="-19.774747" y="400.211011" shape="-14.940741,397.931781 -14.691045,398.900105 -16.135932,400.306016 -22.914498,402.052739 -24.858449,401.521917 -25.108145,400.553593 -14.940741,397.931781 -14.940741,397.931781"/>
  <node id="4629566994" x="59.476159" y="75.184226" shape="56.421864,70.914122 58.250403,71.756760 62.327632,77.446769 62.530454,79.454330 61.717100,80.036100 55.608511,71.495893 56.421864,70.914122 56.421864,70.914122"/>
  <node id="4629566995" x="-5.147921" y="187.641016" shape="-10.270444,186.117119 0.176120,187.175091 0.075361,188.170002 -1.836551,189.152581 -8.758024,188.107015 -10.371203,187.112030 -10.270444,186.117119 -10.270444,186.117119"/>
  <node id="4629580756" x="-12.763972" y="308.928008" shape="-16.134466,307.553320 -9.175981,308.314558 -7.544792,309.496043 -7.652990,310.490173 -18.091349,309.354102 -17.983152,308.359973 -16.134466,307.553320 -16.134466,307.553320"/>
  <node id="4629580757" x="-21.21771" y="275.528865" shape="-26.159014,273.492688 -15.873877,275.605968 -16.075141,276.585505 -17.991276,277.214133 -24.847465,275.802508 -26.360279,274.472225 -26.159014,273.492688 -26.159014,273.492688"/>
  <node id="4635435917" x="21.698097" y="359.066015" shape="20.722422,352.062583 21.722416,352.066057 21.958818,353.727989 23.417970,364.126108 21.673778,366.065973 20.673784,366.062499 20.722422,352.062583 20.722422,352.062583"/>
  <node id="4839403420" x="-114.092827" y="-367.14785" shape="-115.439831,-371.412306 -111.489465,-370.784126 -109.988951,-368.924982 -110.208796,-364.931028 -118.141877,-365.249115 -118.041245,-369.247849 -115.439831,-371.412306 -115.439831,-371.412306"/>
  <node id="4839404197" x="-141.346924" y="-449.154349" shape="-142.522163,-453.469301 -138.600105,-452.683511 -137.346279,-451.153058 -137.347570,-447.153058 -140.992024,-446.946625 -141.347570,-447.154349 -143.307953,-449.547244 -143.326043,-450.195063 -142.522163,-453.469301 -142.522163,-453.469301"/>
  <node id="496106642" x="-133.678212" y="474.724171" shape="-135.490475,470.635687 -131.494782,470.821270 -129.598083,472.893176 -129.765338,476.889677 -137.724428,476.628938 -137.629755,472.630058 -135.490475,470.635687 -135.490475,470.635687"/>
  <node id="5243171092" x="194.076263" y="262.108541" shape="193.153500,252.531955 196.934132,253.838409 199.617444,258.522762 196.062670,268.402720 191.218394,270.378673 187.437763,269.072219 193.153500,252.531955 193.153500,252.531955"/>
  <node id="5443925658" x="261.987905" y="336.367867" shape="258.286622,330.098856 264.089912,335.605261 261.912436,338.366443 261.336786,338.507036 254.917422,338.102302 255.068359,334.105151 255.533376,333.000517 258.286622,330.098856 258.286622,330.098856"/>
  <node id="5443925665" x="186.233879" y="330.928548" shape="188.086733,326.858298 190.601791,329.968682 190.688413,330.532158 189.223712,334.254341 185.518436,333.047071 184.976350,329.373356 184.968326,329.085080 188.086733,326.858298 188.086733,326.858298"/>
  <node id="5443925666" x="174.577928" y="332.54694" shape="175.976594,328.299148 178.264865,330.015834 178.814975,333.977826 177.055486,336.297601 173.079480,336.735065 172.018894,328.879333 175.976594,328.299148 175.976594,328.299148"/>
  <node id="5443925676" x="206.580366" y="384.89423" shape="207.572209,380.533468 210.664082,383.071247 210.868144,386.165042 208.136383,389.086939 204.162325,388.961531 202.631247,385.266156 207.572209,380.533468 207.572209,380.533468"/>
  <node id="5443992217" x="242.18878" y="-461.536992" shape="240.998303,-466.717027 247.164946,-463.404549 245.272102,-459.880753 243.379097,-456.356920 237.212556,-459.669588 237.718853,-461.677534 239.619257,-465.197259 240.998303,-466.717027 240.998303,-466.717027"/>
  <node id="5443992218" x="179.62347" y="-495.307852" shape="178.372579,-500.473631 184.577487,-497.233396 184.093420,-495.168027 182.193580,-491.647997 180.878870,-490.143167 174.671136,-493.377984 176.519603,-496.925261 178.372579,-500.473631 178.372579,-500.473631"/>
  <node id="5443993734" x="-185.693956" y="-90.786015" shape="-187.313622,-94.954550 -183.330928,-94.582869 -181.581509,-92.543224 -181.820721,-88.550383 -189.774560,-88.956078 -189.606268,-92.952536 -187.313622,-94.954550 -187.313622,-94.954550"/>
  <node id="5443993740" x="-154.457441" y="-123.942247" shape="-158.134043,-128.241387 -150.158301,-127.618849 -150.597391,-121.949160 -150.776777,-119.643761 -158.752668,-120.264376 -158.607042,-122.274671 -158.134043,-128.241387 -158.134043,-128.241387"/>
  <node id="5443993741" x="-244.954103" y="-193.071703" shape="-246.630581,-197.217716 -242.643180,-196.900493 -240.829367,-194.799869 -241.096729,-190.808814 -243.277599,-188.925701 -247.265002,-189.242898 -246.947805,-193.230302 -246.630581,-197.217716 -246.630581,-197.217716"/>
  <node id="5443993753" x="-223.573228" y="-351.722745" shape="-227.412456,-354.016286 -219.459649,-353.477302 -219.701435,-349.484616 -221.898255,-347.576124 -225.885541,-347.894794 -227.711597,-350.027487 -227.412456,-354.016286 -227.412456,-354.016286"/>
  <node id="5443993755" x="-199.519964" y="-330.221506"/>
  <node id="5443993756" x="-198.989075" y="-309.850173" shape="-200.785373,-313.945696 -196.790435,-313.744526 -194.838028,-311.514147 -195.167268,-307.527720 -203.127292,-308.154544 -202.828508,-312.143370 -200.785373,-313.945696 -200.785373,-313.945696"/>
  <node id="5443993757" x="-189.849109" y="-429.139902" shape="-190.124670,-434.790041 -188.284898,-433.329561 -184.197033,-429.372362 -189.616649,-423.487826 -195.499248,-428.864341 -190.124670,-434.790041 -190.124670,-434.790041"/>
  <node id="5443993763" x="-9.334019" y="-296.434879" shape="-11.059778,-300.560622 -7.068880,-300.290932 -5.193399,-298.124633 -5.497844,-294.136235 -13.451350,-294.689145 -13.201005,-298.681303 -11.059778,-300.560622 -11.059778,-300.560622"/>
  <node id="5443993764" x="5.549326" y="-295.298794" shape="3.649413,-299.347292 7.648176,-299.247823 9.669343,-296.917342 9.393636,-292.926855 9.190982,-292.940856 1.408706,-293.609040 1.713151,-297.597438 3.649413,-299.347292 3.649413,-299.347292"/>
  <node id="5443993781" x="-76.557068" y="-83.750717" shape="-80.261227,-88.026136 -72.281649,-87.454876 -72.728574,-79.586268 -80.721517,-79.922223 -80.553539,-83.918695 -80.546857,-84.036347 -80.261227,-88.026136 -80.261227,-88.026136"/>
  <node id="5443993783" x="31.309997" y="-74.447353" shape="28.493572,-78.932931 35.410532,-77.857914 35.166123,-76.285319 34.109561,-69.929340 27.203590,-71.072827 27.151755,-72.801443 27.498323,-76.786401 28.493572,-78.932931 28.493572,-78.932931"/>
  <node id="5443993785" x="142.726348" y="-119.478286" shape="140.180893,-124.144190 147.013068,-122.620583 146.990543,-120.826113 146.363127,-116.875626 145.165803,-114.756098 138.369770,-116.433580 140.180893,-124.144190 140.180893,-124.144190"/>
  <node id="5443993787" x="171.080095" y="-149.515665" shape="167.227677,-151.786981 171.218138,-151.510895 171.228553,-151.510147 175.217518,-151.213231 174.920602,-147.224266 173.070170,-145.510718 169.070182,-145.520637 166.951591,-147.796521 167.227677,-151.786981 167.227677,-151.786981"/>
  <node id="5443993789" x="195.120875" y="-428.780474" shape="194.901461,-432.830902 198.483045,-431.049818 199.591414,-428.660975 197.707599,-425.132343 195.122876,-424.308338 191.544367,-426.095592 194.901461,-432.830902 194.901461,-432.830902"/>
  <node id="5443993790" x="219.221715" y="-415.913867" shape="217.631107,-420.985353 224.037177,-418.163605 220.821303,-410.845207 214.410245,-413.655603 214.751176,-416.033366 216.634991,-419.561998 217.631107,-420.985353 217.631107,-420.985353"/>
  <node id="5443993791" x="196.692253" y="-431.94036" shape="196.689939,-436.412495 200.268573,-434.625493 196.911667,-427.889932 193.330083,-429.671016 192.220319,-431.897889 193.975116,-435.492425 196.689939,-436.412495 196.689939,-436.412495"/>
  <node id="5443993792" x="180.365024" y="-461.333343" shape="178.084447,-465.180286 181.447686,-463.014962 184.810794,-460.848443 182.644566,-457.485787 180.419323,-456.861537 176.820158,-458.606820 175.919124,-461.817047 178.084447,-465.180286 178.084447,-465.180286"/>
  <node id="5443993793" x="171.965473" y="-444.011593" shape="171.911174,-448.483399 175.510339,-446.738116 176.437407,-444.054064 174.682610,-440.459528 167.507000,-443.662279 169.010938,-447.368783 171.911174,-448.483399 171.911174,-448.483399"/>
  <node id="5443993794" x="156.565666" y="-450.264308" shape="155.227275,-455.408111 161.486286,-452.273661 161.024272,-450.611921 159.518920,-446.905991 157.906901,-445.121246 151.646158,-448.252235 153.435294,-451.829803 155.227275,-455.408111 155.227275,-455.408111"/>
  <node id="5443993801" x="204.178875" y="-446.932995" shape="201.593657,-450.582193 205.121511,-448.696922 208.649360,-446.811486 206.763959,-443.283702 204.181189,-442.460860 200.602555,-444.247862 199.708386,-447.054340 201.593657,-450.582193 201.593657,-450.582193"/>
  <node id="5443993803" x="269.593043" y="-386.090452" shape="268.674123,-390.467162 272.543059,-389.451613 273.727958,-387.794118 273.436925,-383.804720 271.220832,-381.925083 267.237421,-382.288999 267.601337,-386.272410 267.658575,-386.598226 268.674123,-390.467162 268.674123,-390.467162"/>
  <node id="5443993804" x="276.581546" y="-409.298578" shape="273.931491,-412.900967 277.492491,-411.079078 281.053442,-409.252290 279.227653,-405.693288 277.158086,-404.863761 273.379617,-406.176456 272.109602,-409.339968 273.931491,-412.900967 273.931491,-412.900967"/>
  <node id="5443993807" x="263.101079" y="-316.240756" shape="261.480612,-320.408979 265.463378,-320.038064 265.006885,-314.101424 262.960419,-314.245708 262.943373,-314.246984 258.955828,-314.562396 259.271241,-318.549941 261.480612,-320.408979 261.480612,-320.408979"/>
  <node id="5443993808" x="266.499439" y="-352.76581" shape="264.878615,-356.933895 268.861413,-356.563320 270.663845,-354.396064 270.302285,-350.412438 268.120346,-348.597758 264.137541,-348.968253 264.508037,-352.951058 264.878615,-356.933895 264.878615,-356.933895"/>
  <node id="5443993974" x="218.411353" y="-48.783709" shape="214.621579,-52.983425 222.611069,-52.573483 222.515680,-50.559800 222.294822,-46.565902 222.099804,-44.494731 214.122375,-45.095258 214.621579,-52.983425 214.621579,-52.983425"/>
  <node id="5443993976" x="265.450008" y="-41.896256"/>
  <node id="5443993977" x="216.748575" y="-26.695272" shape="213.060124,-30.984250 221.037553,-30.383723 220.684243,-22.631958 212.685261,-22.759604 212.622136,-24.971177 212.893436,-28.961966 213.060124,-30.984250 213.060124,-30.984250"/>
  <node id="5443993979" x="158.558833" y="105.950498" shape="154.927816,101.612790 162.863692,102.280595 162.228736,110.255357 160.231280,110.098138 156.244189,109.777040 154.221125,109.581515 154.927816,101.612790 154.927816,101.612790"/>
  <node id="5443993982" x="-133.213438" y="161.707194" shape="-130.308672,156.853089 -128.359333,164.611960 -134.162625,166.077439 -136.119655,166.560430 -138.066674,158.800977 -130.308672,156.853089 -130.308672,156.853089"/>
  <node id="5443993985" x="-31.632877" y="85.968254" shape="-35.295350,81.657072 -27.322431,82.304915 -27.969538,90.278700 -30.025059,90.141373 -35.944059,89.630727 -35.295350,81.657072 -35.295350,81.657072"/>
  <node id="5443993986" x="-33.143448" y="101.578961" shape="-34.746050,97.403836 -30.764909,97.791805 -29.038665,99.803924 -29.260549,103.797765 -33.254390,103.575882 -37.248396,103.353615 -37.026141,99.359795 -34.746050,97.403836 -34.746050,97.403836"/>
  <node id="5443993994" x="-261.221664" y="115.832433"/>
  <node id="5459489515" x="210.086274" y="81.704551" shape="206.363909,77.444973 214.345852,77.982186 214.077245,81.973158 214.008135,82.491319 213.221367,86.413180 205.377645,84.839644 206.363909,77.444973 206.363909,77.444973"/>
  <node id="5459489518" x="216.551723" y="-14.359467" shape="212.616055,-18.422781 220.615037,-18.295135 220.551214,-14.295644 220.542694,-14.090860 220.274088,-10.099889 212.292145,-10.637102 212.616055,-18.422781 212.616055,-18.422781"/>
  <node id="5459489520" x="147.629585" y="104.853895" shape="144.258744,100.311051 152.041430,101.313327 151.170153,109.265740 145.471629,108.770938 143.086741,108.224736 144.258744,100.311051 144.258744,100.311051"/>
  <node id="5579955586" x="78.725358" y="7.563273" shape="74.904528,2.572640 77.768151,3.194777 81.645830,4.176410 83.059476,6.460811 82.207798,10.369090 71.888379,10.064417 71.599017,6.074897 74.904528,2.572640 74.904528,2.572640"/>
  <node id="5598542552" x="100.467292" y="71.032706" shape="97.976917,66.337173 104.790691,67.941069 102.957954,75.728087 96.144082,74.124607 96.264459,72.561168 96.722823,68.587517 97.976917,66.337173 97.976917,66.337173"/>
  <node id="560891604" x="-155.149439" y="-377.076233" shape="-153.218230,-382.393227 -151.971134,-380.222402 -150.725521,-376.421291 -150.238274,-374.269017 -157.956655,-372.165068 -160.466433,-379.007442 -153.218230,-382.393227 -153.218230,-382.393227"/>
  <node id="5629539549" x="-89.369049" y="340.830849"/>
  <node id="5629539550" x="-88.534821" y="305.685154"/>
  <node id="5629539551" x="-89.740324" y="356.26797" shape="-93.431248,349.100189 -89.435054,349.274630 -85.436891,349.450311 -86.051469,363.436815 -94.041789,363.086870 -93.431248,349.100189 -93.431248,349.100189"/>
  <node id="5629539552" x="-88.313333" y="296.369102" shape="-84.346541,294.304020 -84.281193,298.303486 -86.412081,300.416971 -90.410877,300.318825 -92.281453,298.431631 -92.344228,294.432124 -84.346541,294.304020 -84.346541,294.304020"/>
  <node id="565073349" x="-194.02431" y="296.895638"/>
  <node id="574875930" x="88.199694" y="259.254685" shape="84.451062,257.537781 92.315265,259.005538 92.131796,259.988564 90.094772,260.441564 86.113145,260.058620 84.267592,258.520806 84.451062,257.537781 84.451062,257.537781"/>
  <node id="574900265" x="181.776224" y="257.858077" shape="184.634093,249.587945 185.579251,249.914558 179.863513,266.454823 178.918355,266.128209 182.262649,250.803760 184.634093,249.587945 184.634093,249.587945"/>
  <node id="574900368" x="31.638822" y="321.5176"/>
  <node id="574900523" x="175.775954" y="346.187346" shape="177.607771,343.212297 180.247534,346.257869 178.402483,349.806924 175.629086,350.657070 172.112054,348.751686 173.614401,343.442503 177.607771,343.212297 177.607771,343.212297"/>
  <node id="575531973" x="12.921291" y="152.580419" shape="10.139407,148.051498 17.437809,149.174385 16.327325,157.096937 15.668856,157.130241 8.508200,156.119434 9.382276,148.167328 10.139407,148.051498 10.139407,148.051498"/>
  <node id="575531981" x="-13.66144" y="358.896877" shape="-13.607197,351.897087 -6.607407,351.951331 -6.715894,365.950910 -16.475475,366.199699 -17.629998,364.170684 -17.692739,353.670872 -13.607197,351.897087 -13.607197,351.897087"/>
  <node id="575531999" x="-247.218404" y="284.940196" shape="-248.477502,262.103297 -240.763760,264.224190 -243.234614,286.002935 -251.233626,285.877210 -253.268954,263.694235 -248.477502,262.103297 -248.477502,262.103297"/>
  <node id="576029105" x="-110.256614" y="-391.272238" shape="-106.973011,-394.308346 -105.857566,-390.467020 -108.909610,-387.007782 -112.859976,-387.635962 -113.472533,-388.164527 -114.672334,-391.980347 -110.856515,-393.180148 -110.814337,-393.192901 -106.973011,-394.308346 -106.973011,-394.308346"/>
  <node id="576029115" x="-103.251796" y="-393.306299" shape="-102.173516,-397.646496 -101.252836,-394.308375 -101.300061,-393.743026 -102.694073,-391.385636 -103.649511,-391.105885 -106.535399,-390.270191 -107.650844,-394.111517 -106.076985,-396.773042 -102.173516,-397.646496 -102.173516,-397.646496"/>
  <node id="576178618" x="-244.235925" y="261.764558" shape="-253.506014,257.883135 -234.380803,263.733460 -234.673319,264.689720 -240.644166,263.789222 -248.357908,261.668329 -253.798531,258.839396 -253.506014,257.883135 -253.506014,257.883135"/>
  <node id="576391837" x="-105.629686" y="296.640895"/>
  <node id="5792767450" x="172.610658" y="352.029972" shape="172.757526,347.560248 176.274558,349.465632 172.550226,356.346876 171.749227,356.969582 168.233796,352.948167 169.249985,349.079399 172.757526,347.560248 172.757526,347.560248"/>
  <node id="5792767451" x="175.611086" y="343.3274" shape="177.365544,339.115641 177.383445,339.278340 177.772639,346.072243 173.779269,346.302449 171.932591,345.870759 171.369302,341.910619 173.389538,339.553105 177.365544,339.115641 177.365544,339.115641"/>
  <node id="5792785161" x="-204.192787" y="-330.6183" shape="-202.748058,-334.850647 -200.037909,-332.272685 -200.376352,-328.287028 -208.345788,-328.959210 -208.011860,-332.945247 -206.711827,-334.313491 -202.748058,-334.850647 -202.748058,-334.850647"/>
  <node id="631946853" x="213.620765" y="355.55938" shape="217.562635,353.447115 217.675699,357.445516 216.142452,359.252765 212.179069,359.792761 209.609379,357.536444 209.632282,353.536509 217.562635,353.447115 217.562635,353.447115"/>
  <node id="63333762" x="37.652352" y="92.098702" shape="39.018103,83.455946 46.331808,90.989852 44.377338,94.886993 36.509062,99.840981 30.772555,95.829438 30.485954,93.380396 30.890553,89.400911 39.018103,83.455946 39.018103,83.455946"/>
  <node id="63333764" x="4.395694" y="88.698227" shape="1.589852,84.184110 8.497406,85.317996 8.580266,87.120457 8.168653,91.099222 7.484978,93.023308 0.154026,92.440987 0.652934,84.456559 1.589852,84.184110 1.589852,84.184110"/>
  <node id="63333766" x="-82.484242" y="81.831166" shape="-86.074242,74.612309 -78.087534,75.073285 -78.173060,78.168693 -78.821769,86.142348 -89.776903,85.268766 -89.148294,77.293501 -86.074242,74.612309 -86.074242,74.612309"/>
  <node id="63336064" x="227.919848" y="-434.26649" shape="226.587675,-439.411907 232.842893,-436.269894 232.391348,-434.191087 230.542426,-430.644048 229.252766,-429.121266 222.997093,-432.262373 223.449077,-434.376960 225.325761,-437.909389 226.587675,-439.411907 226.587675,-439.411907"/>
  <node id="63336067" x="166.559532" y="-470.225765" shape="164.836670,-475.613877 165.301656,-475.389847 171.510940,-472.158007 171.005241,-469.740302 168.838587,-466.377920 167.899021,-465.082248 161.639341,-468.215363 161.171420,-468.502903 164.836670,-475.613877 164.836670,-475.613877"/>