<?xml version="1.0" encoding="UTF-8"?>
<!-- generated on 2021-07-17 16:44:54.612717 by $Id$ UNKNOWN
  options: -n sumo.net.xml -r sumo.rou.xml -b 0 -e 3600 -p 20 <doubleminus>min-distance 100 <doubleminus>fringe-factor 10
-->
<routes xmlns:xsi="http://www.w3.org/2001/XMLSchema-instance" xsi:noNamespaceSchemaLocation="http://sumo.dlr.de/xsd/routes_file.xsd">
    <trip id="0" depart="0.00" from="564768404#0" to="-28317285#0"/>
    <trip id="1" depart="20.00" from="-8797131#6" to="-8797130#0"/>
    <trip id="2" depart="40.00" from="8797130#0" to="-484878996#1"/>
    <trip id="3" depart="60.00" from="374711603#0" to="-28317285#1"/>
    <trip id="4" depart="80.00" from="-8796602#4" to="468421270"/>
    <trip id="5" depart="100.00" from="-269095741" to="-8796806#1"/>
    <trip id="6" depart="120.00" from="564768404#2" to="484878996#2"/>
    <trip id="7" depart="140.00" from="-8796602#4" to="50573172"/>
    <trip id="8" depart="160.00" from="8795503#2" to="-156723058#2"/>
    <trip id="9" depart="180.00" from="873644681#2" to="631833935#0"/>
    <trip id="10" depart="200.00" from="115744546#0" to="-8795651#7"/>
    <trip id="11" depart="220.00" from="8797399#0" to="125568088#2"/>
    <trip id="12" depart="240.00" from="-45270121#7" to="-484878996#6"/>
    <trip id="13" depart="260.00" from="8796353#4" to="50575480#3"/>
    <trip id="14" depart="280.00" from="8795503#0" to="719395505#2"/>
    <trip id="15" depart="300.00" from="468422741#0" to="8797403#1"/>
    <trip id="16" depart="320.00" from="24485699" to="484878996#7"/>
    <trip id="17" depart="340.00" from="8796076#1" to="589533495#3"/>
    <trip id="18" depart="360.00" from="8796601#1" to="50572954#1"/>
    <trip id="19" depart="380.00" from="621527175#19" to="-330310753#2"/>
    <trip id="20" depart="400.00" from="-8796806#3" to="-8797399#1"/>
    <trip id="21" depart="420.00" from="-397303086#0" to="-8797130#2"/>
    <trip id="22" depart="440.00" from="-484878996#10" to="-8797399#0"/>
    <trip id="23" depart="460.00" from="564768404#0" to="190641518#2"/>
    <trip id="24" depart="480.00" from="156723058#2" to="-8797090#1"/>
    <trip id="25" depart="500.00" from="-8797131#12" to="8797131#6"/>
    <trip id="26" depart="520.00" from="564768404#1" to="589533490"/>
    <trip id="27" depart="540.00" from="-8796076#3" to="719395505#1"/>
    <trip id="28" depart="560.00" from="-8795651#6" to="28317285#2"/>
    <trip id="29" depart="580.00" from="8797819#2" to="590831806#1"/>
    <trip id="30" depart="600.00" from="469146403" to="621527175#3"/>
    <trip id="31" depart="620.00" from="8796353#1" to="752702309"/>
    <trip id="32" depart="640.00" from="-8796806#4" to="-28317285#3"/>
    <trip id="33" depart="660.00" from="-8797399#3" to="-8797259#3"/>
    <trip id="34" depart="680.00" from="-8796602#4" to="8797176#0"/>
    <trip id="35" depart="700.00" from="8796806#3" to="125568084#0"/>
    <trip id="36" depart="720.00" from="589533491#1" to="330310753#3"/>
    <trip id="37" depart="740.00" from="8797131#10" to="40802860#1"/>
    <trip id="38" depart="760.00" from="-8797131#12" to="-8797131#3"/>
    <trip id="39" depart="780.00" from="469146403" to="-8797259#0"/>
    <trip id="40" depart="800.00" from="484878996#9" to="8797090#3"/>
    <trip id="41" depart="820.00" from="28317285#3" to="-8797130#0"/>
    <trip id="42" depart="840.00" from="913105420#2" to="468421272"/>
    <trip id="43" depart="860.00" from="-484878996#7" to="590571542#1"/>
    <trip id="44" depart="880.00" from="777809605#3" to="38130522"/>
    <trip id="45" depart="900.00" from="-38130522" to="330310713#0"/>
    <trip id="46" depart="920.00" from="913105420#1" to="469146400"/>
    <trip id="47" depart="940.00" from="8797399#5" to="8796602#0"/>
    <trip id="48" depart="960.00" from="-190641518#2" to="719026490#2"/>
    <trip id="49" depart="980.00" from="59432574#0" to="469146407#2"/>
    <trip id="50" depart="1000.00" from="-8797131#12" to="590831806#1"/>
    <trip id="51" depart="1020.00" from="-484878996#8" to="397303085#0"/>
    <trip id="52" depart="1040.00" from="397353597" to="8797259#1"/>
    <trip id="53" depart="1060.00" from="8796806#3" to="-8797259#0"/>
    <trip id="54" depart="1080.00" from="468421268#1" to="-8796353#5"/>
    <trip id="55" depart="1100.00" from="8797131#1" to="8796602#4"/>
    <trip id="56" depart="1120.00" from="-8797259#7" to="590831806#0"/>
    <trip id="57" depart="1140.00" from="50573035#1" to="-8795651#6"/>
    <trip id="58" depart="1160.00" from="719395506#4" to="484878996#0"/>
    <trip id="59" depart="1180.00" from="-115744546#0" to="125568088#2"/>
    <trip id="60" depart="1200.00" from="-190641518#2" to="8797131#12"/>
    <trip id="61" depart="1220.00" from="8796806#5" to="8796216#1"/>
    <trip id="62" depart="1240.00" from="-8797259#7" to="-397303084#0"/>
    <trip id="63" depart="1260.00" from="8796806#4" to="8797176#2"/>
    <trip id="64" depart="1280.00" from="-45270121#2" to="468421253"/>
    <trip id="65" depart="1300.00" from="-397303083#0" to="719395506#8"/>
    <trip id="66" depart="1320.00" from="719395506#7" to="-719395505#5"/>
    <trip id="67" depart="1340.00" from="45270121#6" to="484878996#5"/>
    <trip id="68" depart="1360.00" from="-8797131#12" to="8796602#4"/>
    <trip id="69" depart="1380.00" from="374711603#1" to="-8797090#3"/>
    <trip id="70" depart="1400.00" from="468422742#0" to="719395505#2"/>
    <trip id="71" depart="1420.00" from="-8796602#0" to="115744546#1"/>
    <trip id="72" depart="1440.00" from="913105420#0" to="590831806#1"/>
    <trip id="73" depart="1460.00" from="397303085#1" to="468421275#1"/>
    <trip id="74" depart="1480.00" from="-50568411#1" to="-8797130#0"/>
    <trip id="75" depart="1500.00" from="115744546#0" to="50573172"/>
    <trip id="76" depart="1520.00" from="-8796806#5" to="-8797130#0"/>
    <trip id="77" depart="1540.00" from="-397303084#0" to="590571552#0"/>
    <trip id="78" depart="1560.00" from="-8796806#4" to="8797130#4"/>
    <trip id="79" depart="1580.00" from="8796570#1" to="-45270121#1"/>
    <trip id="80" depart="1600.00" from="-8797090#4" to="621527175#12"/>
    <trip id="81" depart="1620.00" from="-8796602#4" to="-778910124#1"/>
    <trip id="82" depart="1640.00" from="8797231#1" to="50572945#1"/>
    <trip id="83" depart="1660.00" from="45270121#4" to="777809605#2"/>
    <trip id="84" depart="1680.00" from="8795503#1" to="-8796601#2"/>
    <trip id="85" depart="1700.00" from="-45308484#1" to="397303084#1"/>
    <trip id="86" depart="1720.00" from="708578563#1" to="621527175#15"/>
    <trip id="87" depart="1740.00" from="8797554#3" to="-484878996#7"/>
    <trip id="88" depart="1760.00" from="330310713#1" to="125568089#1"/>
    <trip id="89" depart="1780.00" from="8796601#1" to="-8797131#4"/>
    <trip id="90" depart="1800.00" from="-8796353#6" to="397353599"/>
    <trip id="91" depart="1820.00" from="374711603#0" to="-8797399#0"/>
    <trip id="92" depart="1840.00" from="397353597" to="8796602#0"/>
    <trip id="93" depart="1860.00" from="469146403" to="-361085968#0"/>
    <trip id="94" depart="1880.00" from="913105421" to="8796216#3"/>
    <trip id="95" depart="1900.00" from="8797399#3" to="8797131#12"/>
    <trip id="96" depart="1920.00" from="8796353#4" to="-8796216#1"/>
    <trip id="97" depart="1940.00" from="468421253" to="-8797090#4"/>
    <trip id="98" depart="1960.00" from="24485699" to="8797554#4"/>
    <trip id="99" depart="1980.00" from="-8797131#12" to="777809605#2"/>
    <trip id="100" depart="2000.00" from="397353597" to="38130522"/>
    <trip id="101" depart="2020.00" from="8797399#0" to="913105420#1"/>
    <trip id="102" depart="2040.00" from="469146403" to="719026490#2"/>
    <trip id="103" depart="2060.00" from="-8795651#0" to="-8797399#5"/>
    <trip id="104" depart="2080.00" from="8797399#3" to="50573035#0"/>
    <trip id="105" depart="2100.00" from="468422742#1" to="719395506#15"/>
    <trip id="106" depart="2120.00" from="-38130522" to="50573135#0"/>
    <trip id="107" depart="2140.00" from="468421269#1" to="8796570#0"/>
    <trip id="108" depart="2160.00" from="-8795651#2" to="8797259#6"/>
    <trip id="109" depart="2180.00" from="-397303086#0" to="-8796353#9"/>
    <trip id="110" depart="2200.00" from="50572941#0" to="621527175#16"/>
    <trip id="111" depart="2220.00" from="-8797090#2" to="-719395505#0"/>
    <trip id="112" depart="2240.00" from="8797130#0" to="-8797131#2"/>
    <trip id="113" depart="2260.00" from="361085968#2" to="50573135#0"/>
    <trip id="114" depart="2280.00" from="468421274#0" to="8797131#4"/>
    <trip id="115" depart="2300.00" from="-8796602#2" to="719026490#2"/>
    <trip id="116" depart="2320.00" from="-8797090#4" to="330310753#3"/>
    <trip id="117" depart="2340.00" from="590571550" to="-8797403#1"/>
    <trip id="118" depart="2360.00" from="-8797399#4" to="719395506#2"/>
    <trip id="119" depart="2380.00" from="-397303084#1" to="40802860#1"/>
    <trip id="120" depart="2400.00" from="-397303084#1" to="-8797090#4"/>
    <trip id="121" depart="2420.00" from="-8797131#12" to="8797131#4"/>
    <trip id="122" depart="2440.00" from="8797090#0" to="8796602#4"/>
    <trip id="123" depart="2460.00" from="156723058#1" to="-8796076#1"/>
    <trip id="124" depart="2480.00" from="8796076#4" to="708578563#0"/>
    <trip id="125" depart="2500.00" from="50573121" to="8797819#0"/>
    <trip id="126" depart="2520.00" from="589533491#0" to="-156723058#2"/>
    <trip id="127" depart="2540.00" from="8795651#1" to="-8797403#1"/>
    <trip id="128" depart="2560.00" from="589533496" to="8797131#7"/>
    <trip id="129" depart="2580.00" from="-719395505#2" to="-589533495#2"/>
    <trip id="130" depart="2600.00" from="-8797131#4" to="564768404#1"/>
    <trip id="131" depart="2620.00" from="621527175#8" to="-8796806#4"/>
    <trip id="132" depart="2640.00" from="564768404#0" to="-8797259#1"/>
    <trip id="133" depart="2660.00" from="468421255#0" to="8797130#4"/>
    <trip id="134" depart="2680.00" from="8796353#3" to="-484878996#4"/>
    <trip id="135" depart="2700.00" from="374711603#1" to="-8797399#0"/>
    <trip id="136" depart="2720.00" from="-156723058#0" to="719395510#1"/>
    <trip id="137" depart="2740.00" from="564768404#0" to="-8797176#2"/>
    <trip id="138" depart="2760.00" from="719395505#4" to="484878996#7"/>
    <trip id="139" depart="2780.00" from="38015401#1" to="-190641518#1"/>
    <trip id="140" depart="2800.00" from="-397303084#2" to="8796806#0"/>
    <trip id="141" depart="2820.00" from="8797130#1" to="484878996#3"/>
    <trip id="142" depart="2840.00" from="8796076#4" to="50573121"/>
    <trip id="143" depart="2860.00" from="-8795503#2" to="-719395505#5"/>
    <trip id="144" depart="2880.00" from="-8797259#7" to="8797090#4"/>
    <trip id="145" depart="2900.00" from="777809608#0" to="8796602#0"/>
    <trip id="146" depart="2920.00" from="8797130#0" to="-8797090#2"/>
    <trip id="147" depart="2940.00" from="-8797131#1" to="-484879000#0"/>
    <trip id="148" depart="2960.00" from="747414953" to="8796806#1"/>
    <trip id="149" depart="2980.00" from="330310713#3" to="589533496"/>
    <trip id="150" depart="3000.00" from="-8795651#0" to="8797131#12"/>
    <trip id="151" depart="3020.00" from="8796602#0" to="8797403#3"/>
    <trip id="152" depart="3040.00" from="8795503#3" to="8796602#4"/>
    <trip id="153" depart="3060.00" from="-190641518#2" to="719395506#0"/>
    <trip id="154" depart="3080.00" from="-8797554#4" to="8797131#2"/>
    <trip id="155" depart="3100.00" from="873644681#0" to="8796602#2"/>
    <trip id="156" depart="3120.00" from="8795503#3" to="-8797259#2"/>
    <trip id="157" depart="3140.00" from="777809605#0" to="-50568411#0"/>
    <trip id="158" depart="3160.00" from="8796806#1" to="8796601#2"/>
    <trip id="159" depart="3180.00" from="-8796806#0" to="8795651#4"/>
    <trip id="160" depart="3200.00" from="40802860#1" to="-8797554#0"/>
    <trip id="161" depart="3220.00" from="777809608#0" to="-8797130#0"/>
    <trip id="162" depart="3240.00" from="-190641518#2" to="-8796602#1"/>
    <trip id="163" depart="3260.00" from="-8797554#2" to="8796602#2"/>
    <trip id="164" depart="3280.00" from="564768404#0" to="361085968#1"/>
    <trip id="165" depart="3300.00" from="8797554#1" to="469146407#2"/>
    <trip id="166" depart="3320.00" from="8797259#1" to="-589533495#2"/>
    <trip id="167" depart="3340.00" from="8797399#4" to="-8796353#5"/>
    <trip id="168" depart="3360.00" from="8797399#0" to="-8797259#1"/>
    <trip id="169" depart="3380.00" from="-484878996#6" to="397303085#0"/>
    <trip id="170" depart="3400.00" from="708578563#0" to="125568084#0"/>
    <trip id="171" depart="3420.00" from="50572954#1" to="468421273#0"/>
    <trip id="172" depart="3440.00" from="28317285#0" to="50572954#0"/>
    <trip id="173" depart="3460.00" from="-8797131#12" to="719026490#0"/>
    <trip id="174" depart="3480.00" from="-115744546#1" to="8797131#12"/>
    <trip id="175" depart="3500.00" from="468422741#1" to="719026490#2"/>
    <trip id="176" depart="3520.00" from="719395505#4" to="621527175#13"/>
    <trip id="177" depart="3540.00" from="125568090#0" to="-45270121#1"/>
    <trip id="178" depart="3560.00" from="589533498#0" to="125568088#2"/>
    <trip id="179" depart="3580.00" from="-8797399#2" to="8796353#7"/>
</routes>
