<?xml version="1.0" encoding="UTF-8"?>

<!-- generated on 2022-01-15 15:25:52 by Eclipse SUMO duarouter Version 1.11.0
<configuration xmlns:xsi="http://www.w3.org/2001/XMLSchema-instance" xsi:noNamespaceSchemaLocation="http://sumo.dlr.de/xsd/duarouterConfiguration.xsd">

    <input>
        <net-file value="sumo.net.xml"/>
        <route-files value="trips.trips.xml"/>
    </input>

    <output>
        <output-file value="sumo.rou.xml"/>
        <alternatives-output value="sumo.rou.alt.xml"/>
    </output>

    <time>
        <begin value="0"/>
        <end value="2500"/>
    </time>

    <report>
        <no-warnings value="true"/>
        <ignore-errors value="true"/>
        <no-step-log value="true"/>
    </report>

</configuration>
-->

<routes xmlns:xsi="http://www.w3.org/2001/XMLSchema-instance" xsi:noNamespaceSchemaLocation="http://sumo.dlr.de/xsd/routes_file.xsd">
    <vehicle id="51" depart="3.00" departLane="best" departPos="random" departSpeed="max">
        <route edges="567066770 8796353_7 8796353_5 8796353_3 8795651_2 8795651_3 8795651_4 621527175_9 621527175_2 621527175_3 621527175_8 621527175_10 621527175_11 719026490_1 565167440 564768404_2 719395506_1 719395506_9 719395506_5 719395506_11 8795651_4 621527175_9 8797131_1 8797131_2 8797131_6 8797131_5 8797131_9 -484878996_4 -484878996_3 -484878996_5 -484878996_2 -484878996_1 -8796216_2 -8796216_1 -397303084_2 -397303084_1 -397303085 -8796601 45270121_2 45270121_3 330310753_1 59432574 374711603 777809605_2 468422740 686997726 468422741 468421253 468421254 468421252 8797819_1 8797819_2 8797819_3 8797399_2 8797399_3 -589533495_2 -589533495_1 -50568411_1 -397303083 -397303086 -397303084_2 -397303084_1 -397303085 374711603 777809605_2 468422740 686997726 589533491 752702309 125568090 -589533495_2 -589533495_1 -50568411_1 -397303083 -397303086 8796216_1 8796216_2 484878996_1 484878996_2 484878996_5 484878996_3 484878996_4 8797131_3 565167449 772170796_3"/>
    </vehicle>
    <vehicle id="443" depart="29.00" departLane="best" departPos="random" departSpeed="max">
        <route edges="-8796353_6 8796353_6 8796353_7 8796353_5 156723058 719395506_3 719395506_4 50575480_2 330310753_1 59432574 397303085 397303084_1 397303084_2 397303086 397303083 50568411_1 -50568411_1 -397303083 -397303086 -397303084_2 -397303084_1 -397303085 374711603 777809605_2 468422740 686997726 589533491 752702309 125568090 -589533495_2 -589533495_1 -50568411_1 -397303083 -397303086 -397303084_2 397303084_2 8796216_1 8796216_2 -8796216_2 -8796216_1 397303086 397303083 50568411_1 -50568411_1 -397303083"/>
    </vehicle>
    <vehicle id="924" depart="61.00" departLane="best" departPos="random" departSpeed="max">
        <route edges="-45270121_3 -45270121_2 45270121_2 45270121_3 330310753_1 330310753_2 330310713_1 330310713_3 330310713_2 484878996_1 484878996_2 484878996_5 484878996_3 484878996_4 8797554_1 8797554_4 8797554_3 -8797554_3 -8797554_4 -8797554_1 -484878996_4 -484878996_3 -484878996_5 -484878996_2 -484878996_1 -8796216_2 -8796216_1 397303086 397303083 50568411_1 44465157 589533490 589533498 468422742 590645027 468421268 374711603 777809605_2 468422740 686997726 589533491 752702309 125568090"/>
    </vehicle>
    <vehicle id="1142" depart="76.00" departLane="best" departPos="random" departSpeed="max">
        <route edges="330310753_1 330310753_2 330310713_1 330310713_3 330310713_2 484878996_1 -484878996_1 -8796216_2 -8796216_1 -397303084_2 -397303084_1 -397303085 374711603 777809605_2 468422740 686997726 468422741 468421253 468421254 468421252 8797819_1 468421256_1 468421256_2 468421255 589533491 752702309 125568090 -589533495_2 -589533495_1 -50568411_1 -397303083 -397303086 8796216_1 8796216_2 484878996_1 -484878996_1 -8796216_2 -8796216_1 397303086 397303083 50568411_1 44465157 589533490 589533498 468422742 590645027 468421268 397303085 397303084_1 397303084_2 397303086 397303083 50568411_1 -50568411_1 -397303083 468421275 125568085"/>
    </vehicle>
    <vehicle id="1378" depart="91.00" departLane="best" departPos="random" departSpeed="max">
        <route edges="468421255 589533491 752702309 125568090 -589533495_2 -589533495_1 -50568411_1 -397303083 -397303086 -397303084_2 -397303084_1 -397303085 397303085 397303084_1 -397303084_1 -397303085 -8796601 45270121_2 -45270121_2 45270121_2 45270121_3 330310753_1 59432574 397303085 397303084_1 397303084_2 -397303084_2 397303084_2 397303086 397303083 50568411_1 44465157 589533490 589533498 468422742 590645027 468421268 38015401 330310713_1 330310713_3 8796076_1"/>
    </vehicle>
    <vehicle id="1520" depart="101.00" departLane="best" departPos="random" departSpeed="max">
        <route edges="565167467 621527175_10 621527175_11 719026490_1 565167440 564768404_2 719395506_1 719395506_9 719395506_5 719395506_11 719395506_10 719395506_8 719395506_7 719395506_3 206657080 435978968 719395506_7 719395506_3 719395506_4 50575480_2 330310753_1 330310753_2 330310713_1 330310713_3 8796076_1 8796076_3 -8796076_3 -8796076_1 330310713_2 -8796216_2 -8796216_1 -397303084_2 -397303084_1 -397303085 -8796601 45270121_2 45270121_3 -8795503_3 -8795503_5 567066773"/>
    </vehicle>
    <vehicle id="1630" depart="108.00" departLane="best" departPos="random" departSpeed="max">
        <route edges="719395506_8 719395506_7 719395506_3 719395506_4 50575480_2 330310753_1 59432574 397303085 397303084_1 397303084_2 8796216_1 8796216_2 -330310713_2 8796076_1 -8796076_1 330310713_2 -8796216_2 -8796216_1 -397303084_2 -397303084_1 -397303085 374711603 777809605_2 468422740 686997726 468422741 468421253 468421254 468421252 8797819_1 468421256_1 468421256_2 468421255 589533491 752702309 125568090 -589533495_2 -589533495_1 -50568411_1 -397303083 -397303086 -397303084_2 397303084_2 -397303084_2 -397303084_1 -397303085 397303085 397303084_1"/>
    </vehicle>
    <vehicle id="1709" depart="113.00" departLane="best" departPos="random" departSpeed="max">
        <route edges="374711603 777809605_2 468422740 686997726 589533491 752702309 125568090 -589533495_2 589533495_2 -589533495_2 -589533495_1 -50568411_1 -397303083 -397303086 -397303084_2 -397303084_1 -397303085 -8796601 45270121_2 45270121_3 -8795503_3 8795503_3 -45270121_3 -45270121_2 8796601 38015401 330310713_1 330310713_3 330310713_2 -330310713_2 -330310713_3 -330310713_1 621527175_1"/>
    </vehicle>
    <vehicle id="1947" depart="129.00" departLane="best" departPos="random" departSpeed="max">
        <route edges="-50568411_1 -397303083 -397303086 -397303084_2 -397303084_1 -397303085 38015401 330310713_1 330310713_3 330310713_2 -8796216_2 -8796216_1 397303086 397303083 50568411_1 589533495_1 -589533495_1 -50568411_1 -397303083 -397303086 -397303084_2 -397303084_1 -397303085 374711603 777809605_2 468422740 686997726 589533491 752702309 125568090 -589533495_2 -589533495_1 -50568411_1 -397303083 -397303086 8796216_1 8796216_2 484878996_1 -484878996_1 -8796216_2 -8796216_1 397303086 -397303086 397303086 397303083 50568411_1 -50568411_1"/>
    </vehicle>
    <vehicle id="2184" depart="145.00" departLane="best" departPos="random" departSpeed="max">
        <route edges="719395506_7 -156723058 8796353_3 8795651_2 8795651_3 8795651_4 621527175_9 621527175_2 621527175_3 621527175_8 621527175_10 565167469_1 565167469_2 719395505_3 719026490_1 565167440 564768404_2 719395506_1 719395506_9 719395506_5 719395506_11 719395506_10 719395506_8 719395506_7 719395506_3 719395506_4 50575480_2 330310753_1 59432574 397303085 397303084_1 -397303084_1 -397303085 374711603 777809605_2 468422740 686997726 468422741 468421253 468421254 468421252 8797819_1 468421256_1 468421256_2 468421255 589533491 752702309 125568090 -589533495_2 -589533495_1 -50568411_1 -397303083 -397303086 -397303084_2 -397303084_1 -397303085 38015401 330310713_1 330310713_3 330310713_2 484878996_1 484878996_2 -484878996_2 -484878996_1 -330310713_2 330310713_2"/>
    </vehicle>
    <vehicle id="2661" depart="177.00" departLane="best" departPos="random" departSpeed="max">
        <route edges="8797090_3 8797090_4 719395506_11 719395506_10 719395506_8 719395506_7 -156723058 -8796353_5 -8796353_7 -8796353_6 -8796353_2 8796353_2 8796353_6 8796353_7 8796353_5 156723058 719395506_3 719395506_4 50575480_2 330310753_1 59432574 374711603 777809605_2 468422740 686997726 589533491 752702309 125568090 -589533495_2 -589533495_1 -50568411_1 -397303083 -397303086 -397303084_2 -397303084_1 -397303085 -8796601 -45270121_6 45270121_6 8796601 38015401 330310713_1 330310713_3 330310713_2 484878996_1 484878996_2 484878996_5 484878996_3 484878996_4 8797554_1 8797554_4 -8797554_4 -8797554_1 -484878996_4 -484878996_3 -484878996_5 -484878996_2 -484878996_1 -8796216_2 -8796216_1 -397303084_2 -397303084_1 -397303085 -8796601 -45270121_6 45270121_6 8796601 374711603 777809605_2"/>
    </vehicle>
    <vehicle id="2784" depart="185.00" departLane="best" departPos="random" departSpeed="max">
        <route edges="719395506_3 206657080 435978968 719395506_7 -156723058 8796353_3 8795651_2 8795651_3 8795651_4 621527175_9 8797131_1 206857465_1 206857465_2 206857465_3 621527175_8 621527175_10 621527175_11 719026490_1 565167440 564768404_2 719395506_1 719395506_9 719395506_5 719395506_11 719395506_10 719395506_8 719395506_7 719395506_3 719395506_4 50575480_2 330310753_1 330310753_2 330310713_1 330310713_3 330310713_2 -8796216_2 -8796216_1 -397303084_2 -397303084_1 -397303085 38015401 330310713_1 330310713_3 330310713_2 484878996_1 484878996_2 484878996_5 484878996_3 484878996_4 8797554_1 8797554_4 8797554_3 -8797554_3 -8797554_4 -8797554_1 -484878996_4 -484878996_3 -484878996_5 -484878996_2 -484878996_1 -8796216_2 -8796216_1 397303086 397303083 50568411_1 44465157 589533490 589533498 468422742 590645027 468421268 38015401 330310713_1 330310713_3 330310713_2"/>
    </vehicle>
    <vehicle id="2936" depart="195.00" departLane="best" departPos="random" departSpeed="max">
        <route edges="-484878996_1 -8796216_2 -8796216_1 -397303084_2 -397303084_1 -397303085 -8796601 8796601 374711603 777809605_2 468422740 686997726 589533491 752702309 125568090 -589533495_2 -589533495_1 -50568411_1 -397303083 -397303086 8796216_1 8796216_2 484878996_1 -484878996_1 -8796216_2 -8796216_1 -397303084_2 -397303084_1 -397303085 38015401 330310713_1 330310713_3 330310713_2 -8796216_2 -8796216_1 -397303084_2 -397303084_1 -397303085 374711603 777809605_2 468422740 686997726 468422741 468421253 468421254 468421252 8797819_1 468421256_1 468421256_2 468421255 589533491 752702309 125568090 -589533495_2 -589533495_1 -50568411_1 -397303083 -397303086 8796216_1 8796216_2 484878996_1 484878996_2 484878996_5 484878996_3 484878996_4 8797554_1"/>
    </vehicle>
    <vehicle id="2941" depart="196.00" departLane="best" departPos="random" departSpeed="max">
        <route edges="-330310713_2 330310713_2 -8796216_2 -8796216_1 -397303084_2 -397303084_1 -397303085 -8796601 45270121_2 -45270121_2 8796601 38015401 330310713_1 330310713_3 330310713_2 484878996_1 484878996_2 484878996_5 484878996_3 -484878996_3 -484878996_5 -484878996_2 -484878996_1 -8796216_2 -8796216_1 397303086 397303083 50568411_1 589533495_1 -589533495_1 -50568411_1 -397303083 -397303086 -397303084_2 -397303084_1 -397303085 374711603 777809605_2 468422740 686997726 468422741 468421253 468421254 468421252 8797819_1 468421256_1 468421256_2 468421255 589533491 752702309 125568090 -589533495_2 -589533495_1 -50568411_1 -397303083 -397303086 -397303084_2 -397303084_1 -397303085 -8796601 45270121_2 45270121_3 -8795503_3 8795503_3"/>
    </vehicle>
    <vehicle id="3051" depart="203.00" departLane="best" departPos="random" departSpeed="max">
        <route edges="589533494 125568090 -589533495_2 -589533495_1 -50568411_1 -397303083 -397303086 -397303084_2 -397303084_1 -397303085 374711603 777809605_2 468422740 686997726 468422741 468421253 468421254 468421252 8797819_1 468421256_1 468421256_2 468421255 589533491 752702309 125568090 -589533495_2 -589533495_1 44465157 589533490 589533498 468422742 590645027 468421268 38015401 330310713_1 330310713_3 8796076_1 -8796076_1 330310713_2 -8796216_2 -8796216_1 -397303084_2 -397303084_1 -397303085 374711603 777809605_2 468422740 686997726 589533491 752702309 125568090 -589533495_2 -589533495_1 -50568411_1 -397303083 -397303086 -397303084_2 -397303084_1 -397303085 374711603 777809605_2 468422740 686997726 468422741 468421253 468421254 468421252 8797819_1 468421256_1"/>
    </vehicle>
    <vehicle id="3152" depart="210.00" departLane="best" departPos="random" departSpeed="max">
        <route edges="719395506_9 719395506_5 719395506_11 8795651_4 621527175_9 8797131_1 8797131_2 8797131_6 8797131_5 -8796076_3 -8796076_1 330310713_2 -8796216_2 -8796216_1 -397303084_2 -397303084_1 -397303085 374711603 777809605_2 468422740 686997726 589533491 752702309 125568090 -589533495_2 -589533495_1 -50568411_1 -397303083 -397303086 8796216_1 8796216_2 484878996_1 484878996_2 484878996_5 484878996_3 484878996_4 -484878996_4 -484878996_3 -484878996_5 -484878996_2 -484878996_1 -8796216_2 -8796216_1 397303086 397303083 50568411_1 44465157 589533490 589533498 468422742 590645027 468421268 38015401 330310713_1 330310713_3 330310713_2 484878996_1 -484878996_1 484878996_1 484878996_2 484878996_5"/>
    </vehicle>
    <vehicle id="3403" depart="226.00" departLane="best" departPos="random" departSpeed="max">
        <route edges="361085970 361085968_2 -190641518_1 719026490_1 565167440 564768404_2 719395505_1 719395505_2 719395505_3 719026490_1 565167440 564768404_2 719395506_1 719395506_9 719395506_5 719395506_11 719395506_10 719395506_8 719395506_7 719395506_3 719395506_4 50575480_2 330310753_1 59432574 397303085 397303084_1 397303084_2 -397303084_2 -397303084_1 -397303085 374711603 777809605_2 468422740 686997726 468422741 468421253 468421254 468421252 8797819_1 8797819_2 8797819_3 8797399_2 8797399_3 -589533495_2 -589533495_1 -50568411_1 -397303083 -397303086 -397303084_2 -397303084_1 -397303085 -8796601 45270121_2 45270121_3 330310753_1 330310753_2"/>
    </vehicle>
    <vehicle id="3413" depart="227.00" departLane="best" departPos="random" departSpeed="max">
        <route edges="565167457 8797131_6 8797131_5 8797131_9 -484878996_4 -484878996_3 -484878996_5 -484878996_2 -484878996_1 -8796216_2 -8796216_1 397303086 397303083 50568411_1 -50568411_1 -397303083 397303083 50568411_1 44465157 589533494 125568090 -589533495_2 -589533495_1 -50568411_1 -397303083 -397303086 8796216_1 8796216_2 -8796216_2 8796216_2 484878996_1 484878996_2 484878996_5 484878996_3 484878996_4 -484878996_4 -484878996_3 -484878996_5 -484878996_2 -484878996_1 -8796216_2 -8796216_1 397303086 397303083 50568411_1 44465157 589533494 125568090 -589533495_2 -589533495_1 -50568411_1 -397303083 -397303086 8796216_1 8796216_2 484878996_1 484878996_2 484878996_5 484878996_3 484878996_4 8797131_3 8797131_4"/>
    </vehicle>
    <vehicle id="3542" depart="236.00" departLane="best" departPos="random" departSpeed="max">
        <route edges="-8796353_7 8796353_7 8796353_5 156723058 719395506_3 719395506_4 50575480_2 330310753_1 59432574 374711603 777809605_2 468422740 686997726 468422741 468421253 468421254 468421252 8797819_1 468421256_1 468421256_2 468421255 589533491 752702309 125568090 -589533495_2 -589533495_1 -50568411_1 -397303083 -397303086 -397303084_2 -397303084_1 -397303085 -8796601 45270121_2 45270121_3 330310753_1 59432574 -8796601 45270121_2 45270121_3 -8795503_3 8795503_3 330310753_1 59432574 374711603 777809605_2 468422740 686997726 589533491 752702309 125568090 -589533495_2 -589533495_1 -50568411_1 -397303083 -397303086 8796216_1 8796216_2 -330310713_2 8796076_1 8796076_3 8797131_9 8797131_3 8797131_4 8797131_7"/>
    </vehicle>
    <vehicle id="3891" depart="259.00" departLane="best" departPos="random" departSpeed="max">
        <route edges="-156723058 156723058 719395506_3 719395506_4 50575480_2 330310753_1 330310753_2 330310713_1 330310713_3 330310713_2 -8796216_2 -8796216_1 -397303084_2 -397303084_1 -397303085 374711603 777809605_2 468422740 686997726 468422741 468421253 468421254 468421252 8797819_1 8797819_2 8797819_3 8797399_2 8797399_3 -589533495_2 -589533495_1 -50568411_1 -397303083 -397303086 -397303084_2 -397303084_1 -397303085 374711603 777809605_2 468422740 686997726 589533491 752702309 125568090 -589533495_2 -589533495_1 -50568411_1 -397303083 -397303086 -397303084_2 -397303084_1 -397303085 -8796601 45270121_2 45270121_3 -8795503_3 -8795503_5 8795503_5 8795503_3 330310753_1 59432574 374711603 777809605_2 468422740 686997726 468422741 468421253 468421254 468421252 8797819_1 468421256_1 468421256_2 468421255"/>
    </vehicle>
    <vehicle id="4011" depart="267.00" departLane="best" departPos="random" departSpeed="max">
        <route edges="45270121_2 45270121_3 330310753_1 59432574 374711603 777809605_2 468422740 686997726 468422741 468421253 468421254 468421252 8797819_1 468421256_1 468421256_2 468421255 589533491 752702309 125568090 -589533495_2 -589533495_1 -50568411_1 -397303083 -397303086 397303086 397303083 50568411_1 -50568411_1 -397303083 -397303086 -397303084_2 397303084_2 8796216_1 8796216_2 484878996_1 484878996_2 484878996_5 -484878996_5"/>
    </vehicle>
    <vehicle id="4114" depart="274.00" departLane="best" departPos="random" departSpeed="max">
        <route edges="28317285_1 28317285_2 28317285_3 719395506_1 719395506_9 719395506_5 719395506_11 719395506_10 719395506_8 719395506_7 -156723058 -8796353_5 -8796353_7 -8796353_6 8796353_6 8796353_7 8796353_5 8796353_3 8795651_2 8795651_3 8795651_4 621527175_9 621527175_2 621527175_3 621527175_8 621527175_10 621527175_11 719026490_1 565167440 564768404_2 719395506_1 719395506_9 719395506_5 719395506_11 8795651_4 621527175_9 8797131_1 8797131_2 8797131_6 8797131_5 -8796076_3 -8796076_1 330310713_2 -8796216_2 -8796216_1 -397303084_2 -397303084_1 -397303085 374711603 777809605_2 468422740 686997726 468422741 468421253 468421254 468421252 8797819_1 8797819_2 8797819_3 8797399_2 8797399_3 -589533495_2 -589533495_1 -50568411_1 -397303083 -397303086 -397303084_2 -397303084_1 -397303085 374711603 777809605_2 468422740 686997726 468422741 468421253 468421254 468421252 8797819_1 468421256_1 468421256_2 468421255"/>
    </vehicle>
    <vehicle id="4198" depart="279.00" departLane="best" departPos="random" departSpeed="max">
        <route edges="778910141 8797130_5 269095741 621527175_3 621527175_8 621527175_10 565167469_1 565167469_2 719395505_3 719026490_1 565167440 564768404_2 719395506_1 719395506_9 719395506_5 719395506_11 719395506_10 719395506_8 719395506_7 719395506_3 719395506_4 50575480_2 330310753_1 59432574 374711603 777809605_2 468422740 686997726 468422741 468421253 468421254 468421252 8797819_1 468421256_1 468421256_2 468421255 589533491 752702309 125568090 -589533495_2 -589533495_1 -50568411_1 -397303083 -397303086 -397303084_2 -397303084_1 -397303085 374711603 777809605_2 468422740 686997726 468422741 468421253 468421254 468421252 8797819_1 8797819_2 8797819_3 8797399_2 8797399_3 -589533495_2 -589533495_1 44465157 589533490 589533498 468422742 590645027 468421268 38015401 330310713_1 330310713_3 330310713_2 484878996_1 484878996_2 484878996_5 484878996_3 484878996_4 8797131_3 8797131_4 8797131_7"/>
    </vehicle>
    <vehicle id="4534" depart="302.00" departLane="best" departPos="random" departSpeed="max">
        <route edges="484878996_3 -484878996_3 -484878996_5 -484878996_2 -484878996_1 -8796216_2 -8796216_1 -397303084_2 -397303084_1 -397303085 374711603 777809605_2 468422740 686997726 468422741 468421253 468421254 468421252 8797819_1 468421256_1 468421256_2 468421255 589533491 752702309 125568090 -589533495_2 -589533495_1 -50568411_1 -397303083 -397303086 8796216_1 8796216_2 -330310713_2 -330310713_3 -330310713_1 330310713_1 330310713_3 330310713_2 -8796216_2 -8796216_1 397303086 397303083 50568411_1 589533495_1 589533495_2 -589533495_2 -589533495_1 -50568411_1 -397303083 -397303086 8796216_1 8796216_2 484878996_1 484878996_2 484878996_5 484878996_3 484878996_4 -484878996_4 -484878996_3 -484878996_5 484878996_5 -484878996_5 -484878996_2 -484878996_1 -8796216_2 -8796216_1 -397303084_2 -397303084_1 -397303085 374711603 777809605_2 468422740 686997726 468422741 468421253 468421254 468421252 8797819_1 8797819_2"/>
    </vehicle>
    <vehicle id="4724" depart="314.00" departLane="best" departPos="random" departSpeed="max">
        <route edges="8797131_1 206857465_1 206857465_2 206857465_3 621527175_8 621527175_10 621527175_11 190641518_1 -190641518_1 719026490_1 565167440 564768404_2 719395506_1 719395506_9 719395506_5 719395506_11 719395506_10 719395506_8 719395506_7 719395506_3 719395506_4 50575480_2 330310753_1 59432574 397303085 397303084_1 397303084_2 397303086 397303083 50568411_1 44465157 589533494 125568090 -589533495_2 589533495_2 -589533495_2 -589533495_1 -50568411_1 -397303083 -397303086 -397303084_2 -397303084_1 -397303085 -8796601 45270121_2 -45270121_2 8796601 38015401 330310713_1 330310713_3 330310713_2 484878996_1 484878996_2 484878996_5 484878996_3 484878996_4 8797554_1 8797554_4 8797554_3 -8797554_3 -8797554_4 -8797554_1 -484878996_4 -484878996_3 -484878996_5 -484878996_2 -484878996_1 -8796216_2 -8796216_1 -397303084_2 -397303084_1 -397303085 374711603 777809605_2 468422740 686997726 468422741 468421253 468421254 468421252 8797819_1"/>
    </vehicle>
    <vehicle id="4765" depart="317.00" departLane="best" departPos="random" departSpeed="max">
        <route edges="621527175_4 621527175_6 565167464 -8796076_1 330310713_2 -8796216_2 -8796216_1 -397303084_2 -397303084_1 -397303085 374711603 777809605_2 468422740 686997726 468422741 468421253 468421254 468421252 8797819_1 468421256_1 468421256_2 468421255 589533491 752702309 125568090 -589533495_2 -589533495_1 44465157 589533490 589533498 468422742 590645027 468421268 374711603 777809605_2 468422740 686997726 589533491 752702309 125568090 -589533495_2 -589533495_1 44465157 589533490 589533498 468422742 590645027 468421268 -8796601 8796601 -8796601 45270121_2 45270121_3 330310753_1 59432574"/>
    </vehicle>
    <vehicle id="5553" depart="370.00" departLane="best" departPos="random" departSpeed="max">
        <route edges="-484878996_2 -484878996_1 -8796216_2 -8796216_1 397303086 -397303086 -397303084_2 -397303084_1 -397303085 374711603 777809605_2 468422740 686997726 589533491 752702309 125568090 -589533495_2 -589533495_1 -50568411_1 -397303083 -397303086 -397303084_2 -397303084_1 -397303085 -8796601 8796601 38015401 330310713_1 330310713_3 8796076_1 -8796076_1 330310713_2 -8796216_2 -8796216_1 -397303084_2 -397303084_1 -397303085 -8796601 45270121_2 45270121_3 -8795503_3 207634647"/>
    </vehicle>
    <vehicle id="5640" depart="376.00" departLane="best" departPos="random" departSpeed="max">
        <route edges="361085970 361085968_2 -190641518_1 190641518_1 -190641518_1 719026490_1 565167440 564768404_2 719395506_1 719395506_9 719395506_5 719395506_11 719395506_10 719395506_8 719395506_7 719395506_3 719395506_4 50575480_2 330310753_1 59432574 397303085 397303084_1 397303084_2 397303086 397303083 50568411_1 589533495_1 -589533495_1 44465157 589533494 125568090 -589533495_2 -589533495_1 44465157 589533490 589533498 468422742 590645027 468421268 38015401 330310713_1 330310713_3 330310713_2 -330310713_2 330310713_2 484878996_1 484878996_2 484878996_5 484878996_3"/>
    </vehicle>
    <vehicle id="5893" depart="392.00" departLane="best" departPos="random" departSpeed="max">
        <route edges="206857465_3 621527175_8 621527175_10 621527175_11 719026490_1 565167440 564768404_2 719395506_1 719395506_9 719395506_5 719395506_11 8795651_4 621527175_9 8797131_1 8797131_2 8797131_6 8797131_5 8797131_9 -484878996_4 -484878996_3 484878996_3 -484878996_3 -484878996_5 -484878996_2 -484878996_1 -8796216_2 -8796216_1 397303086 397303083 50568411_1 44465157 589533490 589533498 468422742 590645027 468421268 397303085 397303084_1 397303084_2 -397303084_2 397303084_2 397303086 -397303086 -397303084_2 -397303084_1 -397303085 -8796601 45270121_2 45270121_3 -8795503_3 207634647"/>
    </vehicle>
    <vehicle id="6015" depart="401.00" departLane="best" departPos="random" departSpeed="max">
        <route edges="719395506_1 719395506_9 719395506_5 719395506_11 719395506_10 719395506_8 719395506_7 -156723058 156723058 -156723058 8796353_3 8795651_2 8795651_3 8795651_4 621527175_9 621527175_2 621527175_3 621527175_8 621527175_10 621527175_11 190641518_1 -190641518_1 719026490_1 565167440 564768404_2 719395506_1 719395506_9 719395506_5 719395506_11 8795651_4 621527175_9 8797131_1 206857465_1 206857465_2 206857465_3 621527175_8 621527175_10 621527175_11 719026490_1 565167440 564768404_2 719395506_1 719395506_9 719395506_5 719395506_11 719395506_10 719395506_8 719395506_7 -156723058 -8796353_5 -8796353_7 -8796353_6 -8796353_2 8796353_2 8796353_6 8796353_7 8796353_5 156723058 719395506_3 719395506_4 50575480_2 330310753_1 59432574 374711603 777809605_2 468422740 686997726 468422741 468421253 468421254 468421252 8797819_1 8797819_2"/>
    </vehicle>
    <vehicle id="6121" depart="408.00" departLane="best" departPos="random" departSpeed="max">
        <route edges="8796353_3 8795651_2 8795651_3 8795651_4 621527175_9 621527175_2 621527175_3 621527175_8 621527175_10 621527175_11 719026490_1 565167440 564768404_2 719395505_1 719395505_2 719395505_3 719026490_1 565167440 564768404_2 719395506_1 565167467 621527175_10 565167469_1 565167469_2 719395505_3 719026490_1 565167440 564768404_2 719395506_1 719395506_9 719395506_5 719395506_11 719395506_10 719395506_8 719395506_7 -156723058 8796353_3 -8796353_3 156723058 719395506_3 719395506_4 50575480_2 330310753_1 59432574 397303085 397303084_1 397303084_2 397303086 397303083 50568411_1 44465157 589533490 589533498 468422742 590645027 468421268 38015401 330310713_1 330310713_3 8796076_1"/>
    </vehicle>
    <vehicle id="6149" depart="409.00" departLane="best" departPos="random" departSpeed="max">
        <route edges="-190641518_1 719026490_1 565167440 564768404_2 719395506_1 719395506_9 719395506_5 719395506_11 719395506_10 719395506_8 719395506_7 719395506_3 719395506_4 50575480_2 330310753_1 330310753_2 330310713_1 330310713_3 330310713_2 -8796216_2 -8796216_1 397303086 397303083 50568411_1 -50568411_1 -397303083 -397303086 -397303084_2 -397303084_1 -397303085 374711603 777809605_2 468422740 686997726 468422741 468421253 468421254 468421252 8797819_1 8797819_2 8797819_3 8797399_2 8797399_3 -589533495_2 -589533495_1 -50568411_1 -397303083 -397303086 -397303084_2 -397303084_1 -397303085 374711603 777809605_2 468422740 686997726 589533491 752702309 125568090 -589533495_2 -589533495_1 -50568411_1"/>
    </vehicle>
    <vehicle id="6171" depart="411.00" departLane="best" departPos="random" departSpeed="max">
        <route edges="719026490_1 565167440 564768404_2 719395506_1 719395506_9 719395506_5 719395506_11 719395506_10 719395506_8 719395506_7 719395506_3 719395506_4 50575480_2 330310753_1 59432574 397303085 397303084_1 -397303084_1 -397303085 374711603 777809605_2 468422740 686997726 589533491 752702309 125568090 -589533495_2 -589533495_1 -50568411_1 -397303083 -397303086 8796216_1 8796216_2 -330310713_2 8796076_1 -8796076_1 330310713_2 -8796216_2 -8796216_1 397303086 397303083 50568411_1 44465157 589533490 589533498 468422742 590645027 468421268 -8796601 8796601 374711603 777809605_2 468422740 686997726 468422741 468421253 468421254 468421252 8797819_1"/>
    </vehicle>
    <vehicle id="6343" depart="422.00" departLane="best" departPos="random" departSpeed="max">
        <route edges="8797399_3 -589533495_2 -589533495_1 -50568411_1 -397303083 -397303086 8796216_1 8796216_2 484878996_1 -484878996_1 -8796216_2 -8796216_1 397303086 397303083 50568411_1 -50568411_1 -397303083 -397303086 8796216_1 8796216_2 484878996_1 484878996_2 484878996_5 484878996_3 484878996_4 -484878996_4 -484878996_3 -484878996_5 -484878996_2 -484878996_1 -8796216_2 -8796216_1 397303086 397303083 50568411_1 44465157 589533494 125568090 -589533495_2 -589533495_1 -50568411_1 -397303083 -397303086 8796216_1 8796216_2 -330310713_2 8796076_1 8796076_3 8797131_9 8797131_3"/>
    </vehicle>
    <vehicle id="6375" depart="425.00" departLane="best" departPos="random" departSpeed="max">
        <route edges="190641518_1 -190641518_1 719026490_1 565167440 564768404_2 719395506_1 719395506_9 719395506_5 719395506_11 719395506_10 719395506_8 719395506_7 -156723058 8796353_3 8795651_2 8795651_3 8795651_4 621527175_9 621527175_2 621527175_3 621527175_8 621527175_10 621527175_11 719026490_1 565167440 564768404_2 719395506_1 565167467 621527175_10 621527175_11 719026490_1 565167440 564768404_2 719395506_1 719395506_9 719395506_5 719395506_11 719395506_10 719395506_8 719395506_7 719395506_3 719395506_4 50575480_2 330310753_1 330310753_2 330310713_1 330310713_3 330310713_2 484878996_1 -484878996_1 -330310713_2 -330310713_3 -330310713_1 621527175_1"/>
    </vehicle>
    <vehicle id="6704" depart="446.00" departLane="best" departPos="random" departSpeed="max">
        <route edges="621527175_2 621527175_3 621527175_8 621527175_10 621527175_11 719026490_1 565167440 564768404_2 719395506_1 719395506_9 719395506_5 719395506_11 8795651_4 621527175_9 8797131_1 8797131_2 8797131_6 8797131_5 -8796076_3 -8796076_1 330310713_2 -8796216_2 -8796216_1 -397303084_2 -397303084_1 -397303085 374711603 777809605_2 468422740 686997726 589533491 752702309 125568090 -589533495_2 -589533495_1 -50568411_1 -397303083 -397303086 8796216_1 8796216_2 484878996_1 484878996_2 484878996_5 484878996_3 484878996_4 -484878996_4 -484878996_3 -484878996_5 -484878996_2 -484878996_1 -8796216_2 -8796216_1 -397303084_2 -397303084_1 -397303085 374711603 777809605_2 468422740 686997726 468422741 468421253 468421254 468421252 8797819_1 468421256_1 468421256_2 468421255 589533491 752702309 125568090 -589533495_2 -589533495_1 -50568411_1 -397303083 -397303086 8796216_1 -8796216_1 -397303084_2 -397303084_1 -397303085 -8796601 45270121_2 45270121_3 330310753_1 59432574"/>
    </vehicle>