<?xml version="1.0" encoding="UTF-8"?>

<!-- generated on 2021-07-17 18:55:43 by Eclipse SUMO duarouter Version 1.9.2
<configuration xmlns:xsi="http://www.w3.org/2001/XMLSchema-instance" xsi:noNamespaceSchemaLocation="http://sumo.dlr.de/xsd/duarouterConfiguration.xsd">

    <input>
        <net-file value="sumo.net.xml"/>
        <route-files value="trips.trips.xml"/>
    </input>

    <output>
        <output-file value="sumo.rou.xml"/>
        <alternatives-output value="sumo.rou.alt.xml"/>
    </output>

    <time>
        <begin value="0"/>
        <end value="10000"/>
    </time>

    <report>
        <no-warnings value="true"/>
        <ignore-errors value="true"/>
        <no-step-log value="true"/>
    </report>

</configuration>
-->

<routes xmlns:xsi="http://www.w3.org/2001/XMLSchema-instance" xsi:noNamespaceSchemaLocation="http://sumo.dlr.de/xsd/routes_file.xsd">
    <vehicle id="1" depart="20.00">
        <route edges="-8795503#3 8795503#3 8795503#4 330310753#1 59432574#1 59432574#2 374711603#0 374711603#1 374711603#2 913105420#0 913105420#1 913105420#2 590571552#1 469146407#0 469146407#1 469146407#2 469146407#3 590571550 8796806#0 -8796806#0 484879000#0 484879000#1 590571542#0 590571542#1 50575478 719395508 873644681#0 873644681#1 873644681#2 752702310 719395509#0 719395509#1 589533498#0 589533498#1 468422742#0 468422742#1 590645027 468421273#0 468421273#1 468421268#0 468421268#1 38015401#0 38015401#1 628473035#0 628473035#1 330310713#0 -330310713#0 -330310753#4 -330310753#3 -330310753#1 -8795503#4 -8795503#3 -8795503#0 8796353#0 -8796353#0 8795503#0 8795503#3 8795503#4 330310753#1 59432574#1 59432574#2 589533496 397303085#0 397303085#1 397303084#0 397303084#1 397303086#0 397303083#1 50568411#0 -50568411#0 -397303083#1 -397303086#0 -397303084#1 -397303084#0 -397303085#1 -397303085#0 -589533496 -8796601#1 45270121#3 45270121#4 45270121#5 45270121#6 -8795503#4 -8795503#3 -8795503#0 8796353#0 8796353#1 8796353#2 -8796353#2 -8796353#1 -8796353#0 8795503#0 8795503#3 8795503#4 330310753#1 330310753#3 330310753#4 621527175#1 621527175#4 621527175#6 621527175#9 621527175#13 621527175#14 621527175#15 621527175#16 621527175#17 621527175#18 621527175#19 -719395505#4 -719395505#3 -719395505#2 -28317285#2 -28317285#1 28317285#1 28317285#2 719395506#1 719395506#2 719395506#3 719395506#5 719395506#6 719395506#9 719395506#10 719395506#11 719395506#12 719395506#13 50575480#0 50575480#1 50575480#2 330310753#1 59432574#1 59432574#2 589533496 397303085#0 397303085#1 397303084#0 397303084#1 397303086#0 125568085 469146407#0 469146407#1 469146407#2 469146407#3 590571550 8796806#0 8796806#1 8796806#2 -8796806#2 -8796806#1 -8796806#0 484879000#0 484879000#1 590571542#0 590571542#1 50575478 719395508 873644681#0 873644681#1 873644681#2 752702310 719395509#0 719395509#1 589533498#0 589533498#1 468422742#0 468422742#1 590645027 468421273#0 468421273#1 468421268#0 468421268#1 38015401#0 38015401#1 628473035#0 628473035#1 621527175#1 621527175#4 621527175#6 621527175#9 621527175#13 621527175#14 621527175#15 621527175#16 621527175#17 621527175#18 621527175#19 -719395505#4 719395505#4 -719395505#4 -719395505#3 -719395505#2 719395506#1 719395506#2 719395506#3 719395506#5 719395506#6 719395506#9 719395506#10 719395506#11 719395506#12 719395506#13 50575480#0 50575480#1 50575480#2 330310753#1 330310753#3 330310753#4 621527175#1 621527175#4 621527175#6 -8795651#6 719395506#9 719395506#10 719395506#11 -156723058#1 -8796353#4 -8796353#2 -8796353#1 -8796353#0 8795503#0 8795503#3 8795503#4 330310753#1 330310753#3 330310753#4 621527175#1 621527175#4 621527175#6 -8795651#6 719395506#9 719395506#10 719395506#11 719395506#12 719395506#13 50575480#0 50575480#1 50575480#2 330310753#1 330310753#3 330310753#4 330310713#0 330310713#1 330310713#2 330310713#3 484878996#1 484878996#2 484878996#3 484878996#4 8797259#0 8797259#1 8797259#2 8797259#5 8797403#1 8797403#2 -8797403#2 -8797403#1 -8797259#5 -8797259#2 -8797259#1 -8797259#0 -484878996#4 -484878996#3 -484878996#2 -484878996#1 -8796216#3 -8796216#1 397303086#0 397303083#1 50568411#0 -50568411#0 -397303083#1 -397303086#0 -397303084#1 -397303084#0 -397303085#1 -397303085#0 38015401#0 38015401#1 628473035#0 628473035#1 621527175#1 621527175#4 621527175#6 621527175#9 621527175#13 -269095741 269095741 621527175#14 621527175#15 621527175#16 621527175#17 621527175#18 621527175#19 -719395505#4 -719395505#3 -719395505#2 719395506#1 719395506#2 719395506#3 719395506#5 719395506#6 8795651#6 621527175#9 8797131#2 8797131#3 8797131#4 8797131#6 8797131#7 -8797131#7 8797131#7 -484878996#9 -484878996#8 -484878996#7 -484878996#5 -484878996#4 -484878996#3 -484878996#2 -484878996#1 -330310713#3 -330310713#2 -330310713#1 -330310713#0 -330310753#4 -330310753#3 -330310753#1 -8795503#4 -8795503#3 -8795503#0 8796353#0 -8796353#0 8795503#0 8795503#3 8795503#4 330310753#1 330310753#3 330310753#4 330310713#0 330310713#1 330310713#2 330310713#3 484878996#1 484878996#2 484878996#3 484878996#4 8797259#0 8797259#1 -8797259#1 -8797259#0 -484878996#4 -484878996#3 -484878996#2 -484878996#1 -8796216#3 -8796216#1 397303086#0 125568085 469146407#0 469146407#1 469146407#2 50573035#0 50573035#1 590571542#0 590571542#1 50575478 719395508 873644681#0 873644681#1 873644681#2 752702310 719395509#0 719395509#1 589533498#0 589533498#1 468422742#0 468422742#1 590645027 468421273#0 468421273#1 468421268#0 468421268#1 38015401#0 38015401#1 628473035#0 628473035#1 330310713#0 330310713#1 330310713#2 330310713#3 484878996#1 484878996#2 484878996#3 484878996#4 8797259#0 8797259#1 8797259#2 8797259#5 8797403#1 8797403#2 8797403#3 -8797403#3 -8797403#2 -8797403#1 -8797259#5 -8797259#2 -8797259#1 -8797259#0 484878996#5 484878996#7 484878996#8 484878996#9 -8797131#7 -8797131#6 8797131#6 8797131#7 -484878996#9 -484878996#8 -484878996#7 -484878996#5 -484878996#4 -484878996#3 -484878996#2 -484878996#1 -330310713#3 -330310713#2 -330310713#1 -330310713#0 -330310753#4 -330310753#3 59432574#1 59432574#2 374711603#0 374711603#1 374711603#2 913105421 777809605#0 777809605#1 777809605#3 468422740#0 468422740#1 686997726 468422741#0 468422741#1 468421253 468421254 468421252 8797819#0 468421256#0 468421256#1 468421255#0 468421255#1 24485699 719395509#0 719395509#1 589533498#0 589533498#1 468422742#0 468422742#1 590645027 468421273#0 468421273#1 468421268#0 468421268#1 38015401#0 38015401#1 628473035#0 628473035#1 330310713#0 -330310713#0 -330310753#4 -330310753#3 -330310753#1 -8795503#4 -8795503#3 8795503#3 8795503#4 330310753#1 330310753#3 330310753#4 330310713#0 330310713#1 330310713#2 330310713#3 484878996#1 484878996#2 484878996#3 484878996#4 484878996#5 484878996#7 484878996#8 484878996#9 8797554#0 8797554#1 8797554#2 -8797554#2 -8797554#1 -8797554#0 -484878996#9 -484878996#8 -484878996#7 -484878996#5 -484878996#4 -484878996#3 -484878996#2 -484878996#1 -330310713#3 -330310713#2 -330310713#1 -330310713#0 -330310753#4 -330310753#3 59432574#1 59432574#2 374711603#0 374711603#1 374711603#2 913105421 777809605#0 777809605#1 777809605#3 468422740#0 468422740#1 752702310 719395510#0 719395510#1 752702309 125568090#0 125568090#1 -589533495#2 -589533495#1 -589533495#0 44465157#0 44465157#1 8797231#1 589533490 708578563#1 589533498#0 589533498#1 468422742#0 468422742#1 590645027 468421273#0 468421273#1 468421268#0 468421268#1 38015401#0 38015401#1 628473035#0 628473035#1 621527175#1 621527175#4 621527175#6 621527175#9 621527175#13 621527175#14 621527175#15 621527175#16 621527175#17 621527175#18 621527175#19 -719395505#4 -719395505#3 -719395505#2 719395506#1 719395506#2 719395506#3 719395506#5 719395506#6 719395506#9 719395506#10 719395506#11 719395506#12 719395506#13 50575480#0 50575480#1 50575480#2 -45270121#6 -45270121#5 -45270121#4 -45270121#3 45270121#3 45270121#4 45270121#5 45270121#6 330310753#1 330310753#3 330310753#4 330310713#0 330310713#1 330310713#2 8796076#0 8796076#1 8796076#2 8796076#3 -8797131#4 -8797131#3 -8797131#2 621527175#13 621527175#14 621527175#15 621527175#16 621527175#17 621527175#18 621527175#19 190641518#1 -361085968#1 361085968#1 -190641518#1 -719395505#4 -719395505#3 -719395505#2 719395506#1 719395506#2 719395506#3 719395506#5 719395506#6 8795651#6 621527175#9 8797131#2 8797131#3 8797131#4 -8796076#3 -8796076#2 -8796076#1 -8796076#0 330310713#3 484878996#1 484878996#2 484878996#3 484878996#4 484878996#5 484878996#7 -484878996#7 -484878996#5 -484878996#4 -484878996#3 -484878996#2 -484878996#1 -8796216#3 -8796216#1 397303086#0 125568085 469146407#0 469146407#1 469146407#2 469146407#3 590571550 484879000#0 484879000#1 -484879000#1 -484879000#0 8796806#0 8796806#1 8796806#2 -8796806#2 -8796806#1 -8796806#0 484879000#0 484879000#1 590571542#0 590571542#1 50575478 719395508 873644681#0 873644681#1 873644681#2 752702310 719395509#0 719395509#1 589533498#0 589533498#1 468422742#0 468422742#1 590645027 468421273#0 468421273#1 468421268#0 468421268#1 397303085#0 397303085#1 397303084#0 397303084#1 397303086#0 -397303086#0 -397303084#1 -397303084#0 -397303085#1 -397303085#0 38015401#0 38015401#1 628473035#0 628473035#1 621527175#1 621527175#4 621527175#6 621527175#9 621527175#13 -269095741 719395506#5 -8797090#4 8797090#4 719395506#6 8795651#6 621527175#9 621527175#13 621527175#14 621527175#15 621527175#16 621527175#17 621527175#18 621527175#19 -719395505#4 -719395505#3 -719395505#2 719395505#1 -719395505#2 719395506#1 719395506#2 719395506#3 719395506#5 719395506#6 719395506#9 719395506#10 719395506#11 719395506#12 719395506#13 50575480#0 50575480#1 50575480#2 330310753#1 59432574#1 59432574#2 374711603#0 374711603#1 374711603#2 913105421 777809605#0 777809605#1 777809605#3 468422740#0 468422740#1 752702310 719395509#0 719395509#1 589533498#0 589533498#1 468422742#0 468422742#1 777809606 50573135#0 50573135#1 590571554 469146407#0 469146407#1 469146407#2 469146407#3 590571550 8796806#0 8796806#1 8796806#2 8796806#3 8796806#4 8796806#5 8797090#0 8797090#1 8797090#3 8797090#4 719395506#6 719395506#9 719395506#10 719395506#11 719395506#12 719395506#13 50575480#0 50575480#1 50575480#2 330310753#1 59432574#1 59432574#2 589533496 397303085#0 397303085#1 45308541#0 45308541#1"/>
    </vehicle>
    <vehicle id="8" depart="160.00">
        <route edges="-8797176#2 -8797176#1 -8797259#6 -8797259#5 -8797259#2 -8797259#1 -8797259#0 -484878996#4 -484878996#3 -484878996#2 -484878996#1 -8796216#3 -8796216#1 397303086#0 125568085 469146407#0 469146407#1 469146407#2 469146407#3 590571550 8796806#0 8796806#1 8796806#2 -8796806#2 -8796806#1 -8796806#0 484879000#0 484879000#1 590571542#0 590571542#1 50575478 719395508 873644681#0 873644681#1 873644681#2 752702310 719395509#0 719395509#1 589533498#0 589533498#1 468422742#0 468422742#1 590645027 468421273#0 468421273#1 468421268#0 468421268#1 38015401#0 38015401#1 628473035#0 628473035#1 330310713#0 330310713#1 330310713#2 330310713#3 484878996#1 484878996#2 484878996#3 484878996#4 484878996#5 484878996#7 484878996#8 484878996#9 8797131#9 8797131#10 -8797131#10 -8797131#9 -8797131#7 -8797131#6 -8797131#4 -8797131#3 -8797131#2 621527175#13 -269095741 719395506#5 719395506#6 719395506#9 719395506#10 719395506#11 719395506#12 719395506#13 50575480#0 50575480#1 50575480#2 330310753#1 59432574#1 59432574#2 589533496 397303085#0 397303085#1 397303084#0 397303084#1 397303086#0 397303083#1 50568411#0 50568411#1 50568411#2 589533495#0 589533495#1 589533495#2 -589533495#2 -589533495#1 -589533495#0 -50568411#2 -50568411#1 -50568411#0 -397303083#1 -397303086#0 8796216#1 8796216#3 484878996#1 484878996#2 484878996#3 484878996#4 484878996#5 484878996#7 484878996#8 484878996#9 8797554#0 8797554#1 8797554#2 -8797554#2 -8797554#1 -8797554#0 -484878996#9 -484878996#8 -484878996#7 -484878996#5 -484878996#4 -484878996#3 -484878996#2 -484878996#1 -8796216#3 -8796216#1 -397303084#1 -397303084#0 -397303085#1 -397303085#0 38015401#0 38015401#1 628473035#0 628473035#1 330310713#0 -330310713#0 -330310753#4 -330310753#3 59432574#1 59432574#2 374711603#0 374711603#1 374711603#2 913105421 777809605#0 777809605#1 777809605#3 468422740#0 468422740#1 686997726 468422741#0 468422741#1 468421253 468421254 468421252 8797819#0 8797819#1 8797819#2 8797819#3 8797819#4 8797399#3 8797399#4 -589533495#2 -589533495#1 -589533495#0 -50568411#2 -50568411#1 -50568411#0 -397303083#1 -397303086#0 8796216#1 8796216#3 484878996#1 484878996#2 484878996#3 484878996#4 -484878996#4 -484878996#3 -484878996#2 -484878996#1 -8796216#3 -8796216#1 397303086#0 -397303086#0 -397303084#1 -397303084#0 -397303085#1 -397303085#0 -589533496 374711603#0 374711603#1 374711603#2 913105420#0 913105420#1 913105420#2 590571552#1 469146407#0 469146407#1 469146407#2 469146407#3 590571550 8796806#0 8796806#1 8796806#2 -8796806#2 -8796806#1 -8796806#0 484879000#0 484879000#1 590571542#0 590571542#1 50575478 719395508 873644681#0 873644681#1 873644681#2 752702310 719395509#0 719395509#1 589533498#0 589533498#1 468422742#0 468422742#1 590645027 468421273#0 468421273#1 468421268#0 468421268#1 38015401#0 38015401#1 628473035#0 628473035#1 621527175#1 621527175#4 621527175#6 621527175#9 621527175#13 621527175#14 621527175#15 621527175#16 621527175#17 621527175#18 621527175#19 -719395505#4 -719395505#3 -719395505#2 719395506#1 719395506#2 719395506#3 719395506#5 719395506#6 8795651#6 621527175#9 8797131#2 8797131#3 8797131#4 8797131#6 8797131#7 -484878996#9 -484878996#8 -484878996#7 -484878996#5 -484878996#4 -484878996#3 -484878996#2 -484878996#1 -330310713#3 -330310713#2 -330310713#1 -330310713#0 -330310753#4 -330310753#3 -330310753#1 -45270121#6 -45270121#5 -45270121#4 -45270121#3 8796601#1 589533496 397303085#0 397303085#1 397303084#0 397303084#1 397303086#0 397303083#1 50568411#0 50568411#1 50568411#2 589533495#0 589533495#1 589533495#2 -8797399#4 -8797399#3 40802860#0 40802860#1 40802860#2 8797819#2 8797819#3 8797819#4 8797399#3 8797399#4 -589533495#2 -589533495#1 -589533495#0 -50568411#2 -50568411#1 -50568411#0 -397303083#1 -397303086#0 -397303084#1 -397303084#0 -397303085#1 -397303085#0 -589533496 -8796601#1 -45270121#2 45270121#2 8796601#1 374711603#0 374711603#1 374711603#2 913105421 777809605#0 777809605#1 777809605#3 468422740#0 468422740#1 686997726 468422741#0 468422741#1 468421253 468421254 468421252 8797819#0 468421256#0 468421256#1 468421255#0 468421255#1 24485699 719395509#0 719395509#1 589533498#0 589533498#1 468422742#0 468422742#1 590645027 468421273#0 468421273#1 468421268#0 468421268#1 38015401#0 38015401#1 628473035#0 628473035#1 330310713#0 330310713#1 330310713#2 330310713#3 484878996#1 484878996#2 484878996#3 484878996#4 8797259#0 8797259#1 8797259#2 8797259#5 8797403#1 8797403#2 -8797403#2 -8797403#1 -8797259#5 -8797259#2 -8797259#1 -8797259#0 -484878996#4 -484878996#3 -484878996#2 -484878996#1 -8796216#3 -8796216#1 397303086#0 468421272 468421271#0 468421271#1 777809606 777809605#0 777809605#1 777809605#3 468422740#0 468422740#1 686997726 468422741#0 468422741#1 468421253 468421254 468421252 8797819#0 468421256#0 468421256#1 468421255#0 468421255#1 24485699 719395509#0 719395509#1 589533498#0 589533498#1 468422742#0 468422742#1 590645027 468421273#0 468421273#1 468421268#0 468421268#1 38015401#0 38015401#1 628473035#0 628473035#1 330310713#0 330310713#1 330310713#2 330310713#3 484878996#1 -484878996#1 -8796216#3 -8796216#1 397303086#0 125568085 469146407#0 469146407#1 469146407#2 469146407#3 590571550 484879000#0 484879000#1 590571542#0 590571542#1 50575478 719395508 873644681#0 873644681#1 873644681#2 752702310 719395509#0 719395509#1 589533498#0 589533498#1 468422742#0 468422742#1 590645027 468421273#0 468421273#1 468421268#0 468421268#1 38015401#0 38015401#1 628473035#0 628473035#1 330310713#0 330310713#1 330310713#2 330310713#3 484878996#1 484878996#2 484878996#3 484878996#4 8797259#0 8797259#1 8797259#2 8797259#5 -8797259#5 -8797259#2 -8797259#1 -8797259#0 -484878996#4 -484878996#3 -484878996#2 -484878996#1 -8796216#3 -8796216#1 397303086#0 397303083#1 50568411#0 50568411#1 -50568411#1 -50568411#0 -397303083#1 -397303086#0 8796216#1 8796216#3 484878996#1 484878996#2 -484878996#2 -484878996#1 -330310713#3 8796076#0 8796076#1 8796076#2 8796076#3 -8796076#3 -8796076#2 -8796076#1 8796076#1 -8796076#1 -8796076#0 -330310713#2 -330310713#1 -330310713#0 -330310753#4 -330310753#3 59432574#1 59432574#2 589533496 38015401#0 38015401#1 628473035#0 628473035#1 330310713#0 -330310713#0 -330310753#4 -330310753#3 330310753#3 330310753#4 621527175#1 621527175#4 621527175#6 621527175#9 621527175#13 621527175#14 621527175#15 621527175#16 621527175#17 621527175#18 621527175#19 -719395505#4 -719395505#3 -719395505#2 719395506#1 719395506#2 719395506#3 719395506#5 719395506#6 8795651#6 621527175#9 8797131#2 8797131#3 8797131#4 8797131#6 8797131#7 -484878996#9 -484878996#8 -484878996#7 -484878996#5 -484878996#4 -484878996#3 -484878996#2 -484878996#1 -8796216#3 -8796216#1 397303086#0 468421272 468421271#0 468421271#1 590645027 468421273#0 468421273#1 468421268#0 468421268#1 38015401#0 38015401#1 628473035#0 628473035#1 621527175#1 621527175#4 621527175#6 621527175#9 621527175#13 621527175#14 621527175#15 621527175#16 621527175#17 621527175#18 621527175#19 190641518#1 -361085968#1 361085968#1 -190641518#1 -719395505#4 -719395505#3 -719395505#2 719395506#1 719395506#2 719395506#3 719395506#5 719395506#6 719395506#9 719395506#10 719395506#11 719395506#12 719395506#13 50575480#0 50575480#1 50575480#2 -45270121#6 -45270121#5 -45270121#4 -45270121#3 -45270121#2 -45270121#0 760507889 45270121#2 45270121#3 45270121#4 45270121#5 45270121#6 330310753#1 330310753#3 330310753#4 330310713#0 330310713#1 330310713#2 330310713#3 484878996#1 484878996#2 484878996#3 484878996#4 484878996#5 484878996#7 484878996#8 484878996#9 8797554#0 8797554#1 8797554#2 8797554#3 -8797554#3 -8797554#2 -8797554#1 -8797554#0 -484878996#9 -484878996#8 -484878996#7 -484878996#5 -484878996#4 -484878996#3 -484878996#2 -484878996#1 -8796216#3 -8796216#1 397303086#0 397303083#1 50568411#0 50568411#1 50568411#2 44465157#0 44465157#1 8797231#1 589533490 708578563#1 589533498#0 589533498#1 468422742#0 468422742#1 590645027 468421273#0 468421273#1 468421268#0 468421268#1 -589533496 -8796601#1 -45270121#2 -45270121#0 760507889 45270121#2 8796601#1 589533496 397303085#0 397303085#1 397303084#0 397303084#1 397303086#0 468421272 468421271#0 468421271#1 590645027 468421273#0 468421273#1 468421268#0 468421268#1 38015401#0 38015401#1 628473035#0 628473035#1 621527175#1 621527175#4 621527175#6 621527175#9 621527175#13 621527175#14 621527175#15 621527175#16 621527175#17 621527175#18 621527175#19 -719395505#4 -719395505#3 -719395505#2 719395506#1 719395506#2 719395506#3 719395506#5 719395506#6 719395506#9 719395506#10 719395506#11 719395506#12 719395506#13 50575480#0 50575480#1 50575480#2 -45270121#6 -45270121#5 -45270121#4 -45270121#3 -45270121#2 -45270121#0 50575475 50575476#1 719395508 873644681#0 873644681#1 873644681#2"/>
    </vehicle>
    <vehicle id="9" depart="180.00">
        <route edges="-8797090#3 8797090#3 8797090#4 719395506#6 719395506#9 719395506#10 719395506#11 -156723058#1 -8796353#4 -8796353#2 -8796353#1 -8796353#0 8795503#0 8795503#3 8795503#4 330310753#1 59432574#1 59432574#2 374711603#0 374711603#1 374711603#2 913105421 777809605#0 777809605#1 777809605#3 468422740#0 468422740#1 686997726 468422741#0 468422741#1 468421253 468421254 468421252 8797819#0 468421256#0 468421256#1 468421255#0 468421255#1 24485699 719395509#0 719395509#1 589533498#0 589533498#1 468422742#0 468422742#1 590645027 468421273#0 468421273#1 468421268#0 468421268#1 397303085#0 397303085#1 45308541#0 45308541#1 628473035#0 628473035#1 330310713#0 -330310713#0 -330310753#4 -330310753#3 59432574#1 59432574#2 374711603#0 374711603#1 374711603#2 913105421 777809605#0 777809605#1 777809605#3 468422740#0 468422740#1 752702310 719395509#0 719395509#1 589533498#0 589533498#1 468422742#0 468422742#1 590645027 468421273#0 468421273#1 468421268#0 468421268#1 38015401#0 38015401#1 628473035#0 628473035#1 621527175#1 621527175#4 621527175#6 621527175#9 621527175#13 621527175#14 621527175#15 621527175#16 621527175#17 621527175#18 621527175#19 -719395505#4 -719395505#3 -719395505#2 -28317285#2 -28317285#1 565167471 28317285#2 719395506#1 719395506#2 719395506#3 719395506#5 719395506#6 719395506#9 719395506#10 719395506#11 719395506#12 719395506#13 50575480#0 50575480#1 50575480#2 -8795503#4 8795503#4 330310753#1 59432574#1 59432574#2 374711603#0 374711603#1 374711603#2 913105420#0 913105420#1 913105420#2 590571552#1 469146407#0 469146407#1 469146407#2 469146407#3 590571550 8796806#0 8796806#1 -8796806#1 -8796806#0 484879000#0 484879000#1 590571542#0 590571542#1 719395507 469146402#0 469146402#1 468422741#0 468422741#1 468421253 468421254 468421252 8797819#0 8797819#1 8797819#2 8797819#3 8797819#4 8797399#3 8797399#4 -589533495#2 -589533495#1 -589533495#0 -50568411#2 -50568411#1 -50568411#0 -397303083#1 -397303086#0 -397303084#1 -397303084#0 -397303085#1 -397303085#0 -589533496 -8796601#1 45270121#3 45270121#4 45270121#5 45270121#6 -8795503#4 -8795503#3 -8795503#0 8796353#0 8796353#1 8796353#2 8796353#4 156723058#1 719395506#12 719395506#13 719395506#16 468421267 59432574#1 59432574#2 374711603#0 374711603#1 374711603#2 913105421 777809605#0 777809605#1 777809605#3 468422740#0 468422740#1 686997726 468422741#0 468422741#1 468421253 468421254 468421252 8797819#0 468421256#0 468421256#1 468421255#0 468421255#1 24485699 719395509#0 719395509#1 589533498#0 589533498#1 468422742#0 468422742#1 590645027 468421273#0 468421273#1 468421268#0 468421268#1 38015401#0 38015401#1 628473035#0 628473035#1 330310713#0 330310713#1 330310713#2 330310713#3 484878996#1 484878996#2 484878996#3 484878996#4 484878996#5 484878996#7 484878996#8 484878996#9 -484878996#9 -484878996#8 -484878996#7 -484878996#5 8797259#0 -8797259#0 -484878996#4 -484878996#3 -484878996#2 -484878996#1 -8796216#3 -8796216#1 397303086#0 125568085 469146407#0 469146407#1 469146407#2 469146407#3 590571550 8796806#0 -8796806#0 484879000#0 484879000#1 590571542#0 590571542#1 719395507 469146402#0 469146402#1 468422741#0 468422741#1 468421253 468421254 468421252 8797819#0 468421256#0 468421256#1 468421255#0 468421255#1 24485699 719395509#0 719395509#1 589533498#0 589533498#1 468422742#0 468422742#1 590645027 468421273#0 468421273#1 468421268#0 468421268#1 38015401#0 38015401#1 628473035#0 628473035#1 621527175#1 621527175#4 621527175#6 621527175#9 621527175#13 621527175#14 621527175#15 621527175#16 621527175#17 621527175#18 621527175#19 -719395505#4 -719395505#3 -719395505#2 719395506#1 719395506#2 719395506#3 719395506#5 719395506#6 719395506#9 719395506#10 719395506#11 719395506#12 719395506#13 50575480#0 50575480#1 50575480#2 330310753#1 330310753#3 330310753#4 330310713#0 330310713#1 330310713#2 330310713#3 484878996#1 484878996#2 484878996#3 484878996#4 8797259#0 8797259#1 8797259#2 8797259#5 8797403#1 8797403#2 -8797403#2 -8797403#1 -8797259#5 -8797259#2 -8797259#1 -8797259#0 -484878996#4 -484878996#3 -484878996#2 -484878996#1 -8796216#3 -8796216#1 397303086#0 397303083#1 50568411#0 -50568411#0 -397303083#1 -397303086#0 -397303084#1 -397303084#0 -397303085#1 -397303085#0 -589533496 -8796601#1 45270121#3 45270121#4 45270121#5 45270121#6 330310753#1 330310753#3 330310753#4 330310713#0 330310713#1 330310713#2 330310713#3 484878996#1 484878996#2 484878996#3 484878996#4 484878996#5 484878996#7 484878996#8 484878996#9 -484878996#9 -484878996#8 -484878996#7 -484878996#5 -484878996#4 -484878996#3 -484878996#2 -484878996#1 -330310713#3 -330310713#2 -330310713#1 -330310713#0 -330310753#4 -330310753#3 -330310753#1 -45270121#6 -45270121#5 -45270121#4 -45270121#3 -45270121#2 -45270121#0 50575475 50575476#1 719395508 873644681#0 873644681#1 873644681#2 752702310 719395509#0 719395509#1 589533498#0 589533498#1 468422742#0 468422742#1 590645027 468421273#0 468421273#1 468421268#0 468421268#1 -589533496 589533496 38015401#0 38015401#1 628473035#0 628473035#1 330310713#0 330310713#1 330310713#2 330310713#3 484878996#1 484878996#2 484878996#3 -484878996#3 -484878996#2 -484878996#1 -330310713#3 -330310713#2 -330310713#1 -330310713#0 -330310753#4 -330310753#3 59432574#1 59432574#2 374711603#0 374711603#1 374711603#2 913105421 777809605#0 777809605#1 777809605#3 468422740#0 468422740#1 752702310 719395509#0 719395509#1 589533498#0 589533498#1 468422742#0 468422742#1 590645027 468421273#0 468421273#1 468421268#0 468421268#1 38015401#0 38015401#1 628473035#0 628473035#1 621527175#1 621527175#4 621527175#6 621527175#9 621527175#13 -269095741 719395506#5 719395506#6 719395506#9 719395506#10 719395506#11 719395506#12 719395506#13 50575480#0 50575480#1 50575480#2 -45270121#6 -45270121#5 -45270121#4 -45270121#3 -45270121#2 -45270121#0 50575475 50575476#1 719395508 873644681#0 873644681#1 873644681#2 752702310 719395509#0 719395509#1 589533498#0 589533498#1 468422742#0 468422742#1 590645027 468421273#0 468421273#1 468421268#0 468421268#1 38015401#0 38015401#1 628473035#0 628473035#1 330310713#0 330310713#1 330310713#2 330310713#3 484878996#1 484878996#2 484878996#3 -484878996#3 -484878996#2 -484878996#1 -330310713#3 -330310713#2 -330310713#1 -330310713#0 -330310753#4 -330310753#3 59432574#1 59432574#2 374711603#0 374711603#1 374711603#2 913105421 777809605#0 777809605#1 777809605#3 468422740#0 468422740#1 752702310 719395509#0 719395509#1 589533498#0 589533498#1 468422742#0 468422742#1 777809606 50573135#0 50573135#1 590571554 469146407#0 469146407#1 469146407#2 469146407#3 590571550 8796806#0 -8796806#0 484879000#0 484879000#1 590571542#0 590571542#1 50575478 719395508 873644681#0 873644681#1 873644681#2 752702310 719395509#0 719395509#1 589533498#0 589533498#1 468422742#0 468422742#1 777809606 777809605#0 777809605#1 777809605#3 468422740#0 468422740#1 752702310 719395509#0 719395509#1 589533498#0 589533498#1 468422742#0 468422742#1 590645027 468421273#0 468421273#1 468421268#0 468421268#1 38015401#0 38015401#1 628473035#0 628473035#1 330310713#0 330310713#1 330310713#2 330310713#3 484878996#1 484878996#2 484878996#3 484878996#4 8797259#0 8797259#1 8797259#2 8797259#5 8797259#6 8797259#7 631833935#0 631833935#1 -8797403#3 -8797403#2 -8797403#1 -8797259#5 -8797259#2 -8797259#1 -8797259#0 -484878996#4 -484878996#3 -484878996#2 -484878996#1 -330310713#3 -330310713#2 -330310713#1 -330310713#0 621527175#1 621527175#4 621527175#6 -8795651#6 -8795651#3 8795651#3 719395506#9 719395506#10 719395506#11 719395506#12 719395506#13 50575480#0 50575480#1 50575480#2 330310753#1 59432574#1 59432574#2 374711603#0 374711603#1 374711603#2 913105420#0 913105420#1 913105420#2 590571552#1 469146407#0 469146407#1 469146407#2 469146407#3 590571550 8796806#0 -8796806#0 484879000#0 484879000#1 590571542#0 590571542#1 50575478 719395508 873644681#0 873644681#1 873644681#2 752702310 719395509#0 719395509#1 589533498#0 589533498#1 468422742#0 468422742#1 590645027 468421273#0 468421273#1 468421268#0 468421268#1 -589533496 -8796601#1 -45270121#2 -45270121#0 760507889 45270121#2 8796601#1 374711603#0 374711603#1 374711603#2 913105420#0 913105420#1 913105420#2 590571552#1 469146407#0 469146407#1 469146407#2 469146407#3 590571550 8796806#0 -8796806#0 484879000#0 484879000#1 590571542#0 590571542#1 50575478 719395508 873644681#0 873644681#1 873644681#2 752702310 719395509#0 719395509#1 589533498#0 589533498#1 468422742#0 468422742#1 590645027 468421273#0 468421273#1 468421268#0 468421268#1 38015401#0 38015401#1 628473035#0 628473035#1 621527175#1 621527175#4 621527175#6 621527175#9 621527175#13 621527175#14 621527175#15 621527175#16 621527175#17 621527175#18 621527175#19 190641518#1 -190641518#1 -719395505#4 -719395505#3 -719395505#2 719395506#1 719395506#2 719395506#3 719395506#5 719395506#6 719395506#9 719395506#10 719395506#11 719395506#12 719395506#13 50575480#0 50575480#1 50575480#2 330310753#1 59432574#1 59432574#2 374711603#0 374711603#1 374711603#2 913105420#0 913105420#1 913105420#2 590571552#1 469146407#0 469146407#1 469146407#2 50573035#0 50573035#1 590571542#0 590571542#1 50575478 719395508 873644681#0 873644681#1 873644681#2 752702310 719395509#0 719395509#1 589533498#0 589533498#1 468422742#0 468422742#1 590645027 468421273#0 468421273#1 468421268#0 468421268#1 38015401#0 38015401#1 628473035#0 628473035#1 621527175#1 621527175#4 621527175#6 -8795651#6 8795651#6 621527175#9 8797131#2 8797131#3 8797131#4 8797131#6 8797131#7 -8797131#7 8797131#7 -484878996#9 -484878996#8 -484878996#7 -484878996#5 -484878996#4 -484878996#3 -484878996#2 -484878996#1 -8796216#3 -8796216#1 397303086#0 397303083#1 50568411#0 50568411#1 50568411#2 589533495#0 -589533495#0"/>
    </vehicle>
    <vehicle id="12" depart="240.00">