<?xml version="1.0" encoding="UTF-8"?>

<!-- generated on 2021-07-17 18:31:16 by Eclipse SUMO netconvert Version 1.9.2
<configuration xmlns:xsi="http://www.w3.org/2001/XMLSchema-instance" xsi:noNamespaceSchemaLocation="http://sumo.dlr.de/xsd/netconvertConfiguration.xsd">

    <input>
        <osm-files value="../map.osm"/>
    </input>

    <output>
        <output-file value="sumo.net.xml"/>
        <output.street-names value="true"/>
        <output.original-names value="true"/>
    </output>

    <projection>
        <proj value="+proj=utm +north +zone=18 +lon_0=-77.074875 +lat_0=38.894830 +x_0=0 +y_0=0 +ellps=WGS84 +units=m +no_defs"/>
    </projection>

    <processing>
        <geometry.remove value="true"/>
        <roundabouts.guess value="true"/>
    </processing>

    <tls_building>
        <tls.discard-simple value="true"/>
        <tls.join value="true"/>
        <tls.guess-signals value="true"/>
    </tls_building>

    <ramp_guessing>
        <ramps.guess value="true"/>
    </ramp_guessing>

    <junctions>
        <junctions.join value="true"/>
        <junctions.corner-detail value="5"/>
    </junctions>

    <report>
        <verbose value="true"/>
        <aggregate-warnings value="5"/>
    </report>

</configuration>
-->

<net version="1.9" junctionCornerDetail="5" limitTurnSpeed="5.50" xmlns:xsi="http://www.w3.org/2001/XMLSchema-instance" xsi:noNamespaceSchemaLocation="http://sumo.dlr.de/xsd/net_file.xsd">

    <location netOffset="-317849.14,-4306000.66" convBoundary="0.00,0.00,6253.42,1818.02" origBoundary="-77.100054,38.884270,-77.028413,38.901381" projParameter="+proj=utm +north +zone=18 +lon_0=-77.074875 +lat_0=38.894830 +x_0=0 +y_0=0 +ellps=WGS84 +units=m +no_defs"/>

    <type id="highway.bridleway" priority="1" numLanes="1" speed="2.78" allow="pedestrian" oneway="1" width="2.00"/>
    <type id="highway.bus_guideway" priority="1" numLanes="1" speed="27.78" allow="bus" oneway="1"/>
    <type id="highway.cycleway" priority="1" numLanes="1" speed="8.33" allow="bicycle" oneway="0" width="1.00"/>
    <type id="highway.footway" priority="1" numLanes="1" speed="2.78" allow="pedestrian" oneway="1" width="2.00"/>
    <type id="highway.ford" priority="1" numLanes="1" speed="2.78" allow="army" oneway="0"/>
    <type id="highway.living_street" priority="2" numLanes="1" speed="2.78" disallow="tram rail_urban rail rail_electric rail_fast ship" oneway="0"/>
    <type id="highway.motorway" priority="14" numLanes="2" speed="39.44" allow="private emergency authority army vip passenger hov taxi bus coach delivery truck trailer motorcycle evehicle custom1 custom2" oneway="1"/>
    <type id="highway.motorway_link" priority="9" numLanes="1" speed="22.22" allow="private emergency authority army vip passenger hov taxi bus coach delivery truck trailer motorcycle evehicle custom1 custom2" oneway="1"/>
    <type id="highway.path" priority="1" numLanes="1" speed="2.78" allow="pedestrian bicycle" oneway="0" width="2.00"/>
    <type id="highway.pedestrian" priority="1" numLanes="1" speed="2.78" allow="pedestrian" oneway="1" width="2.00"/>
    <type id="highway.primary" priority="12" numLanes="2" speed="27.78" disallow="tram rail_urban rail rail_electric rail_fast ship" oneway="0"/>
    <type id="highway.primary_link" priority="7" numLanes="1" speed="22.22" disallow="tram rail_urban rail rail_electric rail_fast ship" oneway="0"/>
    <type id="highway.raceway" priority="15" numLanes="2" speed="83.33" allow="vip" oneway="0"/>
    <type id="highway.residential" priority="3" numLanes="1" speed="13.89" disallow="tram rail_urban rail rail_electric rail_fast ship" oneway="0"/>
    <type id="highway.secondary" priority="11" numLanes="1" speed="27.78" disallow="tram rail_urban rail rail_electric rail_fast ship" oneway="0"/>
    <type id="highway.secondary_link" priority="6" numLanes="1" speed="22.22" disallow="tram rail_urban rail rail_electric rail_fast ship" oneway="0"/>
    <type id="highway.service" priority="1" numLanes="1" speed="5.56" allow="pedestrian delivery bicycle" oneway="0"/>
    <type id="highway.stairs" priority="1" numLanes="1" speed="1.39" allow="pedestrian" oneway="1" width="2.00"/>
    <type id="highway.step" priority="1" numLanes="1" speed="1.39" allow="pedestrian" oneway="1" width="2.00"/>
    <type id="highway.steps" priority="1" numLanes="1" speed="1.39" allow="pedestrian" oneway="1" width="2.00"/>
    <type id="highway.tertiary" priority="10" numLanes="1" speed="22.22" disallow="tram rail_urban rail rail_electric rail_fast ship" oneway="0"/>
    <type id="highway.tertiary_link" priority="5" numLanes="1" speed="22.22" disallow="tram rail_urban rail rail_electric rail_fast ship" oneway="0"/>
    <type id="highway.track" priority="1" numLanes="1" speed="5.56" allow="pedestrian motorcycle moped bicycle" oneway="0"/>
    <type id="highway.trunk" priority="13" numLanes="2" speed="27.78" disallow="pedestrian bicycle tram rail_urban rail rail_electric rail_fast ship" oneway="0"/>
    <type id="highway.trunk_link" priority="8" numLanes="1" speed="22.22" disallow="pedestrian bicycle tram rail_urban rail rail_electric rail_fast ship" oneway="0"/>
    <type id="highway.unclassified" priority="4" numLanes="1" speed="13.89" disallow="tram rail_urban rail rail_electric rail_fast ship" oneway="0"/>
    <type id="highway.unsurfaced" priority="1" numLanes="1" speed="8.33" disallow="tram rail_urban rail rail_electric rail_fast ship" oneway="0"/>
    <type id="railway.highspeed" priority="21" numLanes="1" speed="69.44" allow="rail_fast" oneway="1"/>
    <type id="railway.light_rail" priority="19" numLanes="1" speed="27.78" allow="rail_urban" oneway="1"/>
    <type id="railway.preserved" priority="16" numLanes="1" speed="27.78" allow="rail" oneway="1"/>
    <type id="railway.rail" priority="20" numLanes="1" speed="44.44" allow="rail" oneway="1"/>
    <type id="railway.subway" priority="18" numLanes="1" speed="27.78" allow="rail_urban" oneway="1"/>
    <type id="railway.tram" priority="17" numLanes="1" speed="13.89" allow="tram" oneway="1"/>

    <edge id=":1057847670_0" function="internal">
        <lane id=":1057847670_0_0" index="0" allow="pedestrian delivery bicycle" speed="5.39" length="6.28" shape="2627.48,847.80 2625.89,847.40 2624.57,847.69 2623.51,848.67 2622.72,850.33"/>
    </edge>
    <edge id=":1057847670_1" function="internal">
        <lane id=":1057847670_1_0" index="0" allow="pedestrian delivery bicycle" speed="5.56" length="9.60" shape="2627.48,847.80 2618.65,844.04"/>
    </edge>
    <edge id=":1057847670_2" function="internal">
        <lane id=":1057847670_2_0" index="0" allow="pedestrian delivery bicycle" speed="3.65" length="4.67" shape="2627.48,847.80 2626.70,846.59 2626.65,845.69 2627.33,845.12 2628.75,844.86"/>
    </edge>
    <edge id=":1057847670_3" function="internal">
        <lane id=":1057847670_3_0" index="0" allow="pedestrian delivery bicycle" speed="5.56" length="9.63" shape="2619.89,841.09 2628.75,844.86"/>
    </edge>
    <edge id=":1057847670_4" function="internal">
        <lane id=":1057847670_4_0" index="0" allow="pedestrian delivery bicycle" speed="5.56" length="10.78" shape="2619.89,841.09 2622.00,842.48 2623.17,844.48 2623.41,847.10 2622.72,850.33"/>
    </edge>
    <edge id=":1057847670_5" function="internal">
        <lane id=":1057847670_5_0" index="0" allow="pedestrian delivery bicycle" speed="3.65" length="4.67" shape="2619.89,841.09 2620.69,842.30 2620.75,843.19 2620.07,843.77 2618.65,844.04"/>
    </edge>
    <edge id=":1057847670_6" function="internal">
        <lane id=":1057847670_6_0" index="0" allow="pedestrian delivery bicycle" speed="5.20" length="5.04" shape="2620.00,848.35 2620.32,846.85 2620.20,845.63 2619.65,844.69 2618.65,844.04"/>
    </edge>
    <edge id=":1057847670_7" function="internal">
        <lane id=":1057847670_7_0" index="0" allow="pedestrian delivery bicycle" speed="5.56" length="10.98" shape="2620.00,848.35 2621.33,845.75 2623.23,844.29 2625.70,844.00 2628.75,844.86"/>
    </edge>
    <edge id=":1057847670_8" function="internal">
        <lane id=":1057847670_8_0" index="0" allow="pedestrian delivery bicycle" speed="3.71" length="4.91" shape="2620.00,848.35 2621.42,847.83 2622.35,847.98 2622.78,848.82 2622.72,850.33"/>
    </edge>
    <edge id=":1422600187_0" function="internal">
        <lane id=":1422600187_0_0" index="0" allow="pedestrian delivery bicycle" speed="5.56" length="7.77" shape="2580.13,1024.29 2580.05,1022.00 2579.81,1020.44 2579.31,1018.92 2578.45,1016.78"/>
    </edge>
    <edge id=":1422600187_1" function="internal">
        <lane id=":1422600187_1_0" index="0" allow="pedestrian delivery bicycle" speed="5.56" length="9.37" shape="2580.13,1024.29 2580.44,1022.08 2581.44,1020.19 2583.12,1018.59 2585.47,1017.31"/>
    </edge>
    <edge id=":1422600187_2" function="internal">
        <lane id=":1422600187_2_0" index="0" allow="pedestrian delivery bicycle" speed="3.65" length="4.67" shape="2580.13,1024.29 2580.92,1023.08 2581.71,1022.68 2582.52,1023.07 2583.33,1024.26"/>
    </edge>
    <edge id=":1422600187_3" function="internal">
        <lane id=":1422600187_3_0" index="0" allow="pedestrian delivery bicycle" speed="5.56" length="5.57" shape="2586.71,1020.26 2585.22,1021.05 2584.16,1021.98 2583.53,1023.05 2583.33,1024.26"/>
    </edge>
    <edge id=":1422600187_4" function="internal">
        <lane id=":1422600187_4_0" index="0" allow="pedestrian delivery bicycle" speed="5.56" length="10.27" shape="2586.71,1020.26 2583.98,1020.97 2581.70,1020.63 2579.85,1019.23 2578.45,1016.78"/>
    </edge>
    <edge id=":1422600187_5" function="internal">
        <lane id=":1422600187_5_0" index="0" allow="pedestrian delivery bicycle" speed="3.65" length="4.67" shape="2586.71,1020.26 2585.30,1019.99 2584.62,1019.40 2584.68,1018.51 2585.47,1017.31"/>
    </edge>
    <edge id=":1422600187_6" function="internal">
        <lane id=":1422600187_6_0" index="0" allow="pedestrian delivery bicycle" speed="5.02" length="5.03" shape="2581.43,1015.61 2582.12,1016.81 2583.02,1017.49 2584.14,1017.66 2585.47,1017.31"/>
    </edge>
    <edge id=":1422600187_7" function="internal">
        <lane id=":1422600187_7_0" index="0" allow="pedestrian delivery bicycle" speed="5.56" length="8.95" shape="2581.43,1015.61 2582.41,1018.08 2582.97,1019.82 2583.24,1021.62 2583.33,1024.26"/>
    </edge>
    <edge id=":1422600187_8" function="internal">
        <lane id=":1422600187_8_0" index="0" allow="pedestrian delivery bicycle" speed="3.65" length="4.67" shape="2581.43,1015.61 2581.13,1017.02 2580.53,1017.68 2579.64,1017.61 2578.45,1016.78"/>
    </edge>
    <edge id=":1422600205_0" function="internal">
        <lane id=":1422600205_0_0" index="0" allow="pedestrian delivery bicycle" speed="5.56" length="9.08" shape="2637.23,1057.84 2634.65,1057.05 2632.86,1056.62 2631.04,1056.32 2628.37,1055.91"/>
    </edge>
    <edge id=":1422600205_1" function="internal">
        <lane id=":1422600205_1_0" index="0" allow="pedestrian delivery bicycle" speed="5.56" length="10.22" shape="2637.23,1057.84 2635.30,1056.81 2633.78,1055.11 2632.67,1052.74 2631.97,1049.69"/>
    </edge>
    <edge id=":1422600205_2" function="internal">
        <lane id=":1422600205_2_0" index="0" allow="pedestrian delivery bicycle" speed="3.65" length="4.67" shape="2637.23,1057.84 2636.33,1056.71 2636.20,1055.83 2636.82,1055.19 2638.21,1054.79"/>
    </edge>
    <edge id=":1422600205_3" function="internal">
        <lane id=":1422600205_3_0" index="0" allow="pedestrian delivery bicycle" speed="5.56" length="6.65" shape="2635.13,1049.23 2635.59,1051.38 2636.25,1053.02 2637.13,1054.16 2638.21,1054.79"/>
    </edge>
    <edge id=":1422600205_4" function="internal">
        <lane id=":1422600205_4_0" index="0" allow="pedestrian delivery bicycle" speed="5.56" length="11.80" shape="2635.13,1049.23 2635.14,1052.63 2634.02,1054.87 2631.76,1055.97 2628.37,1055.91"/>
    </edge>
    <edge id=":1422600205_5" function="internal">
        <lane id=":1422600205_5_0" index="0" allow="pedestrian delivery bicycle" speed="3.65" length="4.67" shape="2635.13,1049.23 2634.52,1050.54 2633.78,1051.05 2632.93,1050.77 2631.97,1049.69"/>
    </edge>
    <edge id=":1422600205_6" function="internal">
        <lane id=":1422600205_6_0" index="0" allow="pedestrian delivery bicycle" speed="4.78" length="5.41" shape="2628.87,1052.75 2630.42,1052.78 2631.46,1052.28 2631.97,1051.25 2631.97,1049.69"/>
    </edge>
    <edge id=":1422600205_7" function="internal">
        <lane id=":1422600205_7_0" index="0" allow="pedestrian delivery bicycle" speed="5.56" length="9.58" shape="2628.87,1052.75 2631.68,1053.18 2633.60,1053.50 2635.49,1053.96 2638.21,1054.79"/>
    </edge>
    <edge id=":1422600205_8" function="internal">
        <lane id=":1422600205_8_0" index="0" allow="pedestrian delivery bicycle" speed="3.65" length="4.67" shape="2628.87,1052.75 2629.93,1053.73 2630.20,1054.58 2629.68,1055.31 2628.37,1055.91"/>
    </edge>
    <edge id=":1422600216_0" function="internal">
        <lane id=":1422600216_0_0" index="0" allow="pedestrian delivery bicycle" speed="5.02" length="5.02" shape="2755.03,984.03 2754.03,983.08 2752.97,982.68 2751.85,982.83 2750.67,983.54"/>
    </edge>
    <edge id=":1422600216_1" function="internal">
        <lane id=":1422600216_1_0" index="0" allow="pedestrian delivery bicycle" speed="5.56" length="10.16" shape="2755.03,984.03 2753.62,981.61 2753.30,979.32 2754.08,977.16 2755.94,975.13"/>
    </edge>
    <edge id=":1422600216_2" function="internal">
        <lane id=":1422600216_2_0" index="0" allow="pedestrian delivery bicycle" speed="3.65" length="4.67" shape="2755.03,984.03 2754.91,982.59 2755.30,981.78 2756.17,981.60 2757.54,982.06"/>
    </edge>
    <edge id=":1422600216_3" function="internal">
        <lane id=":1422600216_3_0" index="0" allow="pedestrian delivery bicycle" speed="5.10" length="5.07" shape="2757.96,977.61 2757.04,978.62 2756.67,979.69 2756.83,980.84 2757.54,982.06"/>
    </edge>
    <edge id=":1422600216_4" function="internal">
        <lane id=":1422600216_4_0" index="0" allow="pedestrian delivery bicycle" speed="5.56" length="9.40" shape="2757.96,977.61 2750.67,983.54"/>
    </edge>
    <edge id=":1422600216_5" function="internal">
        <lane id=":1422600216_5_0" index="0" allow="pedestrian delivery bicycle" speed="3.65" length="4.67" shape="2757.96,977.61 2756.52,977.75 2755.71,977.38 2755.51,976.51 2755.94,975.13"/>
    </edge>
    <edge id=":1422600216_6" function="internal">
        <lane id=":1422600216_6_0" index="0" allow="pedestrian delivery bicycle" speed="5.56" length="9.39" shape="2748.65,981.06 2755.94,975.13"/>
    </edge>
    <edge id=":1422600216_7" function="internal">
        <lane id=":1422600216_7_0" index="0" allow="pedestrian delivery bicycle" speed="5.56" length="10.24" shape="2748.65,981.06 2751.06,979.61 2753.35,979.30 2755.51,980.11 2757.54,982.06"/>
    </edge>
    <edge id=":1422600216_8" function="internal">
        <lane id=":1422600216_8_0" index="0" allow="pedestrian delivery bicycle" speed="3.65" length="4.67" shape="2748.65,981.06 2750.09,980.92 2750.90,981.29 2751.10,982.16 2750.67,983.54"/>
    </edge>
    <edge id=":1422601300_0" function="internal">
        <lane id=":1422601300_0_0" index="0" allow="pedestrian delivery bicycle" speed="4.99" length="5.06" shape="2643.89,953.52 2643.16,952.33 2642.23,951.68 2641.10,951.57 2639.77,952.00"/>
    </edge>
    <edge id=":1422601300_1" function="internal">
        <lane id=":1422601300_1_0" index="0" allow="pedestrian delivery bicycle" speed="5.56" length="9.17" shape="2643.89,953.52 2643.05,950.83 2643.05,948.60 2643.88,946.80 2645.54,945.46"/>
    </edge>
    <edge id=":1422601300_2" function="internal">
        <lane id=":1422601300_2_0" index="0" allow="pedestrian delivery bicycle" speed="3.65" length="4.67" shape="2643.89,953.52 2644.15,952.10 2644.72,951.41 2645.61,951.47 2646.82,952.25"/>
    </edge>
    <edge id=":1422601300_3" function="internal">
        <lane id=":1422601300_3_0" index="0" allow="pedestrian delivery bicycle" speed="4.91" length="4.37" shape="2647.07,948.27 2646.46,948.84 2646.21,949.70 2646.33,950.83 2646.82,952.25"/>
    </edge>
    <edge id=":1422601300_4" function="internal">
        <lane id=":1422601300_4_0" index="0" allow="pedestrian delivery bicycle" speed="5.56" length="8.19" shape="2647.07,948.27 2639.77,952.00"/>
    </edge>
    <edge id=":1422601300_5" function="internal">
        <lane id=":1422601300_5_0" index="0" allow="pedestrian delivery bicycle" speed="3.65" length="4.67" shape="2647.07,948.27 2645.63,948.14 2644.90,947.62 2644.87,946.73 2645.54,945.46"/>
    </edge>
    <edge id=":1422601300_6" function="internal">
        <lane id=":1422601300_6_0" index="0" allow="pedestrian delivery bicycle" speed="5.56" length="8.07" shape="2638.36,949.13 2645.54,945.46"/>
    </edge>
    <edge id=":1422601300_7" function="internal">
        <lane id=":1422601300_7_0" index="0" allow="pedestrian delivery bicycle" speed="5.56" length="10.41" shape="2638.36,949.13 2641.09,948.24 2643.41,948.46 2645.32,949.80 2646.82,952.25"/>
    </edge>
    <edge id=":1422601300_8" function="internal">
        <lane id=":1422601300_8_0" index="0" allow="pedestrian delivery bicycle" speed="3.65" length="4.67" shape="2638.36,949.13 2639.79,949.32 2640.50,949.86 2640.50,950.75 2639.77,952.00"/>
    </edge>
    <edge id=":1422601301_0" function="internal">
        <lane id=":1422601301_0_0" index="0" allow="pedestrian delivery bicycle" speed="5.21" length="5.06" shape="2628.86,959.25 2628.25,957.97 2627.40,957.16 2626.31,956.81 2624.99,956.91"/>
    </edge>
    <edge id=":1422601301_1" function="internal">
        <lane id=":1422601301_1_0" index="0" allow="pedestrian delivery bicycle" speed="5.56" length="10.06" shape="2628.86,959.25 2628.38,956.54 2628.88,954.31 2630.35,952.57 2632.80,951.31"/>
    </edge>
    <edge id=":1422601301_2" function="internal">
        <lane id=":1422601301_2_0" index="0" allow="pedestrian delivery bicycle" speed="3.65" length="4.67" shape="2628.86,959.25 2629.25,957.86 2629.88,957.23 2630.77,957.36 2631.90,958.26"/>
    </edge>
    <edge id=":1422601301_3" function="internal">
        <lane id=":1422601301_3_0" index="0" allow="pedestrian delivery bicycle" speed="5.06" length="4.98" shape="2633.85,954.33 2632.64,954.95 2631.91,955.82 2631.67,956.92 2631.90,958.26"/>
    </edge>
    <edge id=":1422601301_4" function="internal">
        <lane id=":1422601301_4_0" index="0" allow="pedestrian delivery bicycle" speed="5.56" length="9.24" shape="2633.85,954.33 2631.26,955.23 2629.47,955.80 2627.65,956.28 2624.99,956.91"/>
    </edge>
    <edge id=":1422601301_5" function="internal">
        <lane id=":1422601301_5_0" index="0" allow="pedestrian delivery bicycle" speed="3.65" length="4.67" shape="2633.85,954.33 2632.45,953.97 2631.81,953.35 2631.93,952.46 2632.80,951.31"/>
    </edge>
    <edge id=":1422601301_6" function="internal">
        <lane id=":1422601301_6_0" index="0" allow="pedestrian delivery bicycle" speed="5.56" length="8.90" shape="2624.26,953.80 2626.83,953.19 2628.58,952.72 2630.30,952.17 2632.80,951.31"/>
    </edge>
    <edge id=":1422601301_7" function="internal">
        <lane id=":1422601301_7_0" index="0" allow="pedestrian delivery bicycle" speed="5.56" length="9.91" shape="2624.26,953.80 2626.89,953.57 2629.04,954.24 2630.71,955.80 2631.90,958.26"/>
    </edge>
    <edge id=":1422601301_8" function="internal">
        <lane id=":1422601301_8_0" index="0" allow="pedestrian delivery bicycle" speed="3.65" length="4.67" shape="2624.26,953.80 2625.61,954.30 2626.18,954.99 2625.97,955.86 2624.99,956.91"/>
    </edge>
    <edge id=":1422601312_0" function="internal">
        <lane id=":1422601312_0_0" index="0" allow="pedestrian delivery bicycle" speed="5.56" length="4.84" shape="2669.54,939.98 2668.29,939.29 2667.12,938.95 2666.02,938.97 2664.99,939.34"/>
    </edge>
    <edge id=":1422601312_1" function="internal">
        <lane id=":1422601312_1_0" index="0" allow="pedestrian delivery bicycle" speed="5.56" length="8.98" shape="2669.54,939.98 2667.72,938.43 2666.47,936.64 2665.79,934.61 2665.68,932.35"/>
    </edge>
    <edge id=":1422601312_2" function="internal">
        <lane id=":1422601312_2_0" index="0" allow="pedestrian delivery bicycle" speed="3.72" length="4.94" shape="2669.54,939.98 2669.46,938.46 2669.88,937.62 2670.81,937.45 2672.25,937.96"/>
    </edge>
    <edge id=":1422601312_3" function="internal">
        <lane id=":1422601312_3_0" index="0" allow="pedestrian delivery bicycle" speed="5.56" length="7.65" shape="2668.96,931.46 2669.05,933.38 2669.63,935.11 2670.70,936.63 2672.25,937.96"/>
    </edge>
    <edge id=":1422601312_4" function="internal">
        <lane id=":1422601312_4_0" index="0" allow="pedestrian delivery bicycle" speed="5.56" length="9.18" shape="2668.96,931.46 2668.54,934.17 2667.75,936.39 2666.56,938.11 2664.99,939.34"/>
    </edge>
    <edge id=":1422601312_5" function="internal">
        <lane id=":1422601312_5_0" index="0" allow="pedestrian delivery bicycle" speed="3.72" length="4.96" shape="2668.96,931.46 2668.47,932.91 2667.77,933.54 2666.84,933.36 2665.68,932.35"/>
    </edge>
    <edge id=":1422601312_6" function="internal">
        <lane id=":1422601312_6_0" index="0" allow="pedestrian delivery bicycle" speed="5.56" length="4.96" shape="2663.44,936.54 2664.33,935.86 2665.01,934.93 2665.46,933.76 2665.68,932.35"/>
    </edge>
    <edge id=":1422601312_7" function="internal">
        <lane id=":1422601312_7_0" index="0" allow="pedestrian delivery bicycle" speed="5.56" length="9.40" shape="2663.44,936.54 2665.38,935.86 2667.49,935.86 2669.78,936.56 2672.25,937.96"/>
    </edge>
    <edge id=":1422601312_8" function="internal">
        <lane id=":1422601312_8_0" index="0" allow="pedestrian delivery bicycle" speed="3.65" length="4.67" shape="2663.44,936.54 2664.87,936.66 2665.61,937.16 2665.65,938.06 2664.99,939.34"/>
    </edge>
    <edge id=":1422601313_0" function="internal">
        <lane id=":1422601313_0_0" index="0" allow="pedestrian delivery bicycle" speed="5.56" length="6.01" shape="2605.34,959.33 2603.60,959.64 2602.40,960.03 2601.40,960.75 2600.25,962.06"/>
    </edge>
    <edge id=":1422601313_1" function="internal">
        <lane id=":1422601313_1_0" index="0" allow="pedestrian delivery bicycle" speed="5.56" length="9.08" shape="2605.34,959.33 2602.92,959.41 2600.90,958.76 2599.28,957.39 2598.07,955.30"/>
    </edge>
    <edge id=":1422601313_2" function="internal">
        <lane id=":1422601313_2_0" index="0" allow="pedestrian delivery bicycle" speed="3.65" length="4.67" shape="2605.34,959.33 2604.03,958.74 2603.50,958.02 2603.76,957.16 2604.82,956.18"/>
    </edge>
    <edge id=":1422601313_3" function="internal">
        <lane id=":1422601313_3_0" index="0" allow="pedestrian delivery bicycle" speed="5.34" length="4.74" shape="2601.02,954.07 2601.66,955.16 2602.50,955.88 2603.56,956.22 2604.82,956.18"/>
    </edge>
    <edge id=":1422601313_4" function="internal">
        <lane id=":1422601313_4_0" index="0" allow="pedestrian delivery bicycle" speed="5.56" length="8.44" shape="2601.02,954.07 2601.69,956.30 2601.78,958.37 2601.31,960.29 2600.25,962.06"/>
    </edge>
    <edge id=":1422601313_5" function="internal">
        <lane id=":1422601313_5_0" index="0" allow="pedestrian delivery bicycle" speed="3.65" length="4.67" shape="2601.02,954.07 2600.74,955.49 2600.16,956.16 2599.27,956.10 2598.07,955.30"/>
    </edge>
    <edge id=":1422601313_6" function="internal">
        <lane id=":1422601313_6_0" index="0" allow="pedestrian delivery bicycle" speed="5.56" length="5.03" shape="2597.74,960.08 2598.33,959.06 2598.58,957.92 2598.49,956.67 2598.07,955.30"/>
    </edge>
    <edge id=":1422601313_7" function="internal">
        <lane id=":1422601313_7_0" index="0" allow="pedestrian delivery bicycle" speed="5.56" length="8.40" shape="2597.74,960.08 2599.34,958.22 2600.72,957.19 2602.38,956.62 2604.82,956.18"/>
    </edge>
    <edge id=":1422601313_8" function="internal">
        <lane id=":1422601313_8_0" index="0" allow="pedestrian delivery bicycle" speed="3.65" length="4.67" shape="2597.74,960.08 2599.11,959.63 2599.99,959.81 2600.37,960.62 2600.25,962.06"/>
    </edge>
    <edge id=":1422617301_0" function="internal">
        <lane id=":1422617301_0_0" index="0" disallow="tram rail_urban rail rail_electric rail_fast ship" speed="3.65" length="4.67" shape="2763.29,1357.96 2764.51,1357.20 2765.40,1357.16 2765.97,1357.85 2766.21,1359.28"/>
    </edge>
    <edge id=":1422617306_0" function="internal">
        <lane id=":1422617306_0_0" index="0" disallow="tram rail_urban rail rail_electric rail_fast ship" speed="6.08" length="9.06" shape="2678.00,1125.35 2680.23,1124.08 2682.19,1123.95 2683.88,1124.95 2685.30,1127.10"/>
    </edge>
    <edge id=":1422617307_0" function="internal">
        <lane id=":1422617307_0_0" index="0" disallow="tram rail_urban rail rail_electric rail_fast ship" speed="13.89" length="13.95" shape="2685.67,1127.89 2687.09,1131.18 2688.20,1134.39 2689.08,1137.66 2689.81,1141.17"/>
    </edge>
    <edge id=":1422617307_1" function="internal">
        <lane id=":1422617307_1_0" index="0" disallow="tram rail_urban rail rail_electric rail_fast ship" speed="7.87" length="12.08" shape="2685.67,1127.89 2686.85,1131.29 2686.94,1134.23 2685.95,1136.69 2683.87,1138.70"/>
        <lane id=":1422617307_1_1" index="1" disallow="tram rail_urban rail rail_electric rail_fast ship" speed="7.14" length="9.79" shape="2685.67,1127.89 2686.22,1130.03 2685.80,1132.10 2684.42,1134.11 2682.08,1136.05"/>
    </edge>
    <edge id=":1689413925_0" function="internal">
        <lane id=":1689413925_0_0" index="0" disallow="tram rail_urban rail rail_electric rail_fast ship" speed="3.65" length="4.67" shape="1846.00,633.97 1847.36,633.47 1848.24,633.61 1848.65,634.41 1848.59,635.85"/>
    </edge>
    <edge id=":1689413955_0" function="internal">
        <lane id=":1689413955_0_0" index="0" disallow="tram rail_urban rail rail_electric rail_fast ship" speed="3.65" length="4.67" shape="1909.78,667.20 1910.68,666.07 1911.51,665.74 1912.27,666.21 1912.97,667.47"/>
    </edge>
    <edge id=":1689414009_0" function="internal">
        <lane id=":1689414009_0_0" index="0" disallow="tram rail_urban rail rail_electric rail_fast ship" speed="3.91" length="3.05" shape="2009.23,716.01 2008.38,715.87 2007.75,716.06 2007.34,716.58 2007.16,717.43"/>
    </edge>
    <edge id=":1689414009_1" function="internal">
        <lane id=":1689414009_1_0" index="0" disallow="tram rail_urban rail rail_electric rail_fast ship" speed="6.08" length="9.14" shape="2003.97,717.21 2004.51,714.67 2005.73,713.12 2007.62,712.54 2010.18,712.95"/>
    </edge>
    <edge id=":1689414026_0" function="internal">
        <lane id=":1689414026_0_0" index="0" disallow="tram rail_urban rail rail_electric rail_fast ship" speed="6.04" length="9.07" shape="2085.85,740.65 2083.33,740.10 2081.44,740.57 2080.17,742.06 2079.53,744.56"/>
    </edge>
    <edge id=":1689414026_1" function="internal">
        <lane id=":1689414026_1_0" index="0" disallow="tram rail_urban rail rail_electric rail_fast ship" speed="13.89" length="14.64" shape="2085.85,740.65 2072.05,735.77"/>
    </edge>
    <edge id=":1689414026_2" function="internal">
        <lane id=":1689414026_2_0" index="0" disallow="tram rail_urban rail rail_electric rail_fast ship" speed="3.65" length="2.34" shape="2085.85,740.65 2085.01,739.48 2084.91,738.59"/>
    </edge>
    <edge id=":1689414026_9" function="internal">
        <lane id=":1689414026_9_0" index="0" disallow="tram rail_urban rail rail_electric rail_fast ship" speed="3.65" length="2.34" shape="2084.91,738.59 2085.57,737.98 2086.97,737.65"/>
    </edge>
    <edge id=":1689414026_3" function="internal">
        <lane id=":1689414026_3_0" index="0" disallow="tram rail_urban rail rail_electric rail_fast ship" speed="13.89" length="14.76" shape="2073.05,732.73 2086.97,737.65"/>
    </edge>
    <edge id=":1689414026_4" function="internal">
        <lane id=":1689414026_4_0" index="0" disallow="tram rail_urban rail rail_electric rail_fast ship" speed="8.84" length="5.81" shape="2073.05,732.73 2076.27,734.40 2077.69,736.07"/>
    </edge>
    <edge id=":1689414026_5" function="internal">
        <lane id=":1689414026_5_0" index="0" disallow="tram rail_urban rail rail_electric rail_fast ship" speed="3.65" length="2.34" shape="2073.05,732.73 2073.94,733.87 2074.07,734.75"/>
    </edge>
    <edge id=":1689414026_10" function="internal">
        <lane id=":1689414026_10_0" index="0" disallow="tram rail_urban rail rail_electric rail_fast ship" speed="8.84" length="8.93" shape="2077.69,736.07 2078.42,736.92 2079.50,740.31 2079.53,744.56"/>
    </edge>
    <edge id=":1689414026_11" function="internal">
        <lane id=":1689414026_11_0" index="0" disallow="tram rail_urban rail rail_electric rail_fast ship" speed="3.65" length="2.34" shape="2074.07,734.75 2073.44,735.39 2072.05,735.77"/>
    </edge>
    <edge id=":1689414026_6" function="internal">
        <lane id=":1689414026_6_0" index="0" disallow="tram rail_urban rail rail_electric rail_fast ship" speed="7.50" length="10.35" shape="2076.34,744.22 2076.35,741.15 2075.64,738.71 2074.20,736.92 2072.05,735.77"/>
    </edge>
    <edge id=":1689414026_7" function="internal">
        <lane id=":1689414026_7_0" index="0" disallow="tram rail_urban rail rail_electric rail_fast ship" speed="7.63" length="15.23" shape="2076.34,744.22 2077.42,740.01 2079.55,737.52 2082.73,736.73 2086.97,737.65"/>
    </edge>
    <edge id=":1689414026_8" function="internal">
        <lane id=":1689414026_8_0" index="0" disallow="tram rail_urban rail rail_electric rail_fast ship" speed="3.65" length="4.67" shape="2076.34,744.22 2077.27,743.11 2078.10,742.80 2078.86,743.28 2079.53,744.56"/>
    </edge>
    <edge id=":1689414122_0" function="internal">