<?xml version="1.0" encoding="UTF-8"?>
<!-- generated on 2021-07-17 18:55:42.660492 by $Id$ UNKNOWN
  options: -n sumo.net.xml -r sumo.rou.xml -b 0 -e 10000 -p 20 <doubleminus>min-distance 25 <doubleminus>fringe-factor 0.25 <doubleminus>random <doubleminus>intermediate 40
-->
<routes xmlns:xsi="http://www.w3.org/2001/XMLSchema-instance" xsi:noNamespaceSchemaLocation="http://sumo.dlr.de/xsd/routes_file.xsd">
    <trip id="0" depart="0.00" from="8797399#4" to="-8795503#4" via="873644681#0 8796076#1 8796570#0 45308484#1 -484879000#1 -8797131#4 -8795503#0 -8797403#3 468421267 -8795503#3 397303084#0 589533495#1 8797259#0 156723058#1 -8797131#7 397303086#0 468421267 621527175#15 468422741#1 589533495#2 50568411#2 468421269#0 -484878996#2 45270121#2 628473035#1 -397303084#0 8797130#4 -8797259#5 -397303086#0 589533498#0 -45270121#2 590571552#1 190641518#1 8796353#1 8797399#4 589533490 468421255#0 719395506#16 -330310713#1 -8797131#11" />
    <trip id="1" depart="20.00" from="-8795503#3" to="45308541#1" via="8796806#0 -8796353#0 397303083#1 -8796353#2 -28317285#1 397303084#1 -8796806#2 719395505#4 621527175#1 -8796353#0 -8795651#6 8797403#2 397303083#1 269095741 621527175#17 -8797131#7 -8795503#0 -8797259#1 469146407#1 8797403#3 -8797131#6 468421253 -8795503#3 8797554#2 719395510#0 589533498#1 621527175#19 45270121#3 8796076#2 -361085968#1 -8796076#1 484878996#7 484879000#1 -8796806#2 397303086#0 -8797090#4 719395505#1 468422742#0 8796806#3 8797090#0" />
    <trip id="2" depart="40.00" from="468421273#0" to="-45270121#0" via="564768404#1 913105420#0 468421256#1 -8795651#3 397353599-AddedOnRampEdge -8797403#1 468422741#1 -8795651#3 397303086#0 -8797403#1 468421268#0 468422740#1 565167471 913105420#2 8797819#3 8797819#4 45308541#1 -8797131#4 -8797090#0 -50568411#2 621527175#16 621527175#6 -719395505#3 50575480#2 719395506#13 -8797399#1 719395505#3 777809605#1 38015401#0 8795503#3 468421269#0 719395506#13 8797090#3 -719395505#2 8797554#2 686997726 777809605#0 621527175#19 125568088#0 8795651#2" />
    <trip id="3" depart="60.00" from="8796353#7" to="621527175#16" via="8797554#2 -50568411#1 469146402#1 8795651#6 621527175#13 -484878996#4 719395509#1 8797819#3 125568088#0 330310713#1 8796806#5 361085968#1 -8797131#2 8797130#4 190641518#1 -8797090#0 -50568411#1 719395508 50573035#1 8797131#11 59432574#2 590571552#1 484878996#1 -484878996#4 -8796076#2 484879000#0 45270121#6 8796216#3 156723058#1 719395506#3 -8797259#0 -397303086#0 719395506#5 -8796806#4 40802860#2 -8795651#6 8797130#3 913105420#0 777809605#1 361085968#1" />
    <trip id="4" depart="80.00" from="468422742#0" to="-330310713#0" via="752702309 468421271#0 -484878996#4 -397303084#1 -397303085#0 -115744546#1 45270121#2 631833935#0 -8795651#6 50575476#1 590571550 -8797554#3 -8797176#2 8796806#2 719395505#4 8796806#0 468421269#0 8797259#1 469146407#1 330310713#2 38015401#0 -8795503#3 8795651#3 28317285#1 -115744546#1 -8797131#10 590571542#1 8797819#1 8797554#2 468421268#1 8796353#4 719395506#12 8796076#1 125568090#1 -397303084#0 397353599-AddedOnRampEdge 468422741#1 -8797131#3 8797259#1 8797130#4" />
    <trip id="5" depart="100.00" from="468421271#0" to="38015401#1" via="50575475 8797130#3 330310713#0 719395509#1 -330310713#2 484878996#1 -8797131#4 8795503#3 621527175#19 621527175#16 -8796806#2 8797819#3 50572951#1 -397303083#1 40802860#1 8797130#4 -8797554#3 8795503#0 50575480#0 8797131#9 -8797131#10 468421255#1 484878996#4 -484878996#3 -50568411#2 190641518#1 8796353#2 589533491#0 -330310753#4 -361085968#0 -8797131#7 125568085 -8796806#1 8796806#1 8796602#1 -8796806#4 50573135#1 589533491#1 621527175#15 468421255#0" />
    <trip id="6" depart="120.00" from="-8797554#2" to="-8797399#1" via="-330310713#0 -330310713#0 719395506#2 468422742#1 590645027 719395506#10 484878996#8 8797131#9 -8796806#2 468421255#0 8796806#4 8797819#0 50573135#1 468422742#0 50572954#1 469146407#3 8796076#1 8796806#5 8797554#3 8797819#3 686997726 -8796601#1 -8795651#2 59432574#1 115744546#1 38015401#0 -8797259#6 468421271#1 8796216#1 -8797259#0 -8796602#1 468421273#1 330310713#3 8796806#4 -8797399#4 190641518#1 8797131#10 -156723058#1 719395506#12 621527175#1" />
    <trip id="7" depart="140.00" from="330310713#0" to="-8797176#2" via="-8797554#3 -484879000#0 621527175#13 719395506#11 -8797259#5 -269095741 -8797130#4 589533498#1 468421269#1 -8797554#1 468421253 -8795651#1 913105421 -330310713#2 468421269#0 469146402#1 -8796806#5 50573035#0 8797819#4 -484878996#9 397353599-AddedOnRampEdge 628473035#0 8797819#1 469146402#1 50575475 621527175#4 873644681#1 50575480#2 589533496 -8797554#2 873644681#0 -484878996#1 -330310713#2 8797399#1 8797259#7 28317285#2 719395506#3 468421255#1 -45270121#2 468421268#1" />
    <trip id="8" depart="160.00" from="-8797176#2" to="873644681#2" via="-8796806#2 8797131#10 50575480#0 -589533495#2 8797554#2 628473035#1 8797819#1 -484878996#4 -397303086#0 8796806#2 621527175#1 621527175#14 -484878996#7 -45270121#3 40802860#1 -45270121#2 468421255#0 8797403#2 468421272 468422741#0 24485699 484878996#1 484879000#1 -8797259#5 50568411#1 484878996#2 8796076#3 8796076#1 628473035#0 330310753#4 621527175#15 8797131#4 468421272 -361085968#1 760507889 -8797554#3 589533490 -45270121#0 468421271#1 621527175#19" />
    <trip id="9" depart="180.00" from="-8797090#3" to="-589533495#0" via="-8796353#4 468421256#1 45308541#0 590645027 565167471 8795503#4 8796806#1 8797819#4 45270121#5 719395506#16 468421253 -484878996#9 -8797259#0 -8796806#0 468421253 719395506#1 -8797403#2 397303083#1 45270121#6 -484878996#8 873644681#1 -589533496 330310713#2 -484878996#3 752702310 719395506#6 873644681#1 484878996#3 468422742#1 8796806#0 777809605#3 631833935#0 8795651#3 -8796806#0 -45270121#0 -8796806#0 -190641518#1 50573035#1 -8795651#6 -8797131#7" />
    <trip id="10" depart="200.00" from="361085968#1" to="8796602#1" via="469146407#3 8797090#3 45308541#1 -8795651#2 589533490 8796806#0 484878996#1 8796602#0 590571542#0 -8797131#3 719395506#1 777809606 45270121#5 468422742#0 -8796806#5 719395506#1 125568089#0 28317285#1 330310713#1 397353599-AddedOnRampEdge 719395506#2 -8797131#10 589533495#1 719395506#9 621527175#1 50568411#0 -8797131#3 590571542#0 628473035#1 468421270 686997726 589533496 621527175#16 -8796806#1 -8797259#6 589533498#0 484878996#9 631833935#1 45270121#2 45308484#1" />
    <trip id="11" depart="220.00" from="8797403#2" to="-330310753#3" via="621527175#17 8797176#1 -8797130#4 621527175#18 190641518#1 8796353#0 719395509#0 330310713#2 -397303085#1 -484878996#8 8795503#3 -8797130#3 -45308484#1 59432574#2 44465157#1 468421271#1 38015401#0 873644681#1 397303085#1 468421267 468421271#1 -8797130#3 28317285#1 8797131#3 468422741#1 44465157#1 468421273#0 -8797259#1 719395506#5 719395506#3 -8796806#2 468422741#1 50573035#1 125568089#0 125568084#0 -719395505#3 397303084#0 719395507 330310753#1 -8796216#3" />
    <trip id="12" depart="240.00" from="115744546#1" to="8795651#6" via="621527175#16 484878996#2 777809606 -8797403#3 8797231#1 -8796602#0 8797554#3 719395509#0 873644681#1 50573135#0 8797131#4 40802860#1 8797131#10 50573035#1 468421272 45270121#3 397303085#0 -8796353#2 -8796806#4 8795651#2 -8796076#3 8797090#0 719395506#5 397303084#0 -50568411#1 -8797090#1 719395506#5 -8797554#3 -8797131#11 8796806#1 -484879000#0 621527175#17 719395506#16 8796216#3 50575475 8795651#2 719395506#3 8797819#1 -8797131#4 469146407#1" />
    <trip id="13" depart="260.00" from="469146407#3" to="125568090#0" via="-28317285#1 468421268#0 8797090#4 468421256#0 -8795651#1 484879000#0 125568089#0 873644681#1 397303083#1 468422740#0 468422741#1 330310713#1 -484878996#1 397303085#0 468422740#1 8795651#6 -8796353#7 621527175#9 -8797131#3 8797090#0 50573035#0 8796806#5 719395506#13 752702310 -50568411#2 -484878996#4 330310753#1 8797819#2 777809605#0 -8797259#5 468421252 8796353#0 589533490 -484878996#1 -8797403#3 468421273#1 621527175#15 631833935#0 -397303084#1 -8797403#3" />
    <trip id="14" depart="280.00" from="8795651#2" to="589533495#1" via="-330310713#1 8796806#1 -589533495#2 8797131#7 397303084#1 719395506#5 -8795651#0 484878996#8 8797131#2 -8797131#9 719395510#0 -8796806#1 8797399#3 50575480#1 469146407#3 -8796076#0 50573035#1 156723058#1 40802860#2 -8796806#3 590645027 -8797403#1 -8796076#1 484879000#0 468421268#1 -719395505#2 50575480#1 330310753#3 8797819#4 8797090#3 631833935#0 50573135#0 8797090#0 -8797131#4 -8797399#4 125568089#0 621527175#14 8797259#5 -484878996#2 8797819#0" />
    <trip id="15" depart="300.00" from="-45270121#6" to="-8797131#7" via="-8797131#9 -28317285#1 -330310713#2 484878996#8 719395505#1 -8795651#1 719395506#2 484878996#8 -8797131#11 590571550 -484878996#5 -8796353#1 8796216#3 8796601#1 719395506#2 468421269#1 -8797554#3 468421271#1 719395506#13 8796353#1 -484878996#4 468421252 50568411#1 44465157#0 50575478 8797554#0 -589533495#0 469146407#0 8797403#2 8797554#1 621527175#15 40802860#2 8797131#3 589533495#1 -330310753#4 45270121#6 719395506#11 719395505#4 469146402#1 484878996#1" />
    <trip id="16" depart="320.00" from="-45270121#0" to="621527175#19" via="468421269#1 8797131#3 -8796076#0 45270121#2 50572951#1 397303086#0 8797259#7 374711603#1 8797259#5 -8796806#5 -8795651#3 719395506#3 621527175#16 -397303085#1 8796806#5 -8796076#1 8797131#9 -8797090#3 8796353#4 -8795651#2 8797130#3 -8796601#1 -8795651#0 -8796806#4 -8796216#3 50572954#1 50575478 8797131#10 589533495#2 589533495#0 484878996#8 686997726 621527175#16 -8797090#3 40802860#0 8797259#6 777809605#1 468421270 468421273#0 -115744546#0" />
    <trip id="17" depart="340.00" from="8796076#3" to="628473035#1" via="-8797131#2 752702309 -8797403#2 8797259#6 8796353#4 -330310713#0 631833935#0 -8795503#3 631833935#1 -719395505#2 -8796216#3 397303084#1 719395506#13 719395510#1 -719395505#3 8797259#0 397303084#0 -8796076#2 468421255#0 777809606 -8797403#2 8797131#9 468422741#0 -8796806#2 -8797131#7 8797819#0 873644681#2 589533498#0 -8797090#1 -8797130#4 8796353#0 628473035#1 28317285#1 8796353#0 589533498#0 621527175#14 -397303085#1 -8795651#2 -8795651#0 -8796601#1" />
    <trip id="18" depart="360.00" from="-8795651#1" to="-589533495#2" via="621527175#4 484878996#1 8797554#3 719395507 468422742#0 361085968#0 468421252 468421267 8797399#4 8795651#0 -8795651#2 708578563#1 8797090#1 8797554#2 8797403#3 125568085 374711603#0 59432574#2 8796570#0 397303085#1 631833935#0 719395510#1 -8795651#3 8795651#1 8796806#5 -8797259#6 468421253 -719395505#4 8797399#1 8797090#0 468422742#1 719395506#10 468422741#0 8795651#6 125568090#0 484878996#8 330310713#2 38015401#1 -8797259#1 468422741#0" />
    <trip id="19" depart="380.00" from="468421256#0" to="8796602#1" via="8796602#1 468422741#1 8796806#2 -156723058#1 484878996#3 719026490#1 397303084#1 8797259#7 50573135#0 45270121#6 589533498#0 50575478 468421252 468421256#1 -397303084#1 -589533495#2 484878996#4 8797131#4 8796076#1 -28317285#1 156723058#1 50575480#1 621527175#15 -8797259#5 719395506#3 397303085#1 -8796806#2 374711603#2 -397303086#0 -484878996#3 468421268#0 50575480#2 -45308484#1 -8797131#2 125568090#0 -8796076#1 468421269#0 468421272 468422741#0 330310753#3" />
    <trip id="20" depart="400.00" from="330310713#3" to="484878996#3" via="760507889 -8797131#6 8797090#3 -8795503#0 -45270121#0 -28317285#2 8795503#3 -330310713#2 8797090#4 -8796602#1 -28317285#2 50573035#0 -8796353#7 8797131#4 8797131#10 -8797554#3 484878996#9 8797399#4 719395506#6 361085968#0 564768404#1 752702310 564768404#1 719395505#3 621527175#14 8796353#0 397303086#0 -8797403#1 8796806#5 397303085#1 628473035#1 468421271#0 468421269#0 -45270121#4 719395506#12 -8796353#1 -8797131#11 50573135#1 468421256#0 -397303086#0" />
    <trip id="21" depart="420.00" from="45270121#4" to="469146407#2" via="-8797090#4 374711603#1 719026490#1 719395507 8797399#1 50575475 125568085 719395506#11 330310753#1 50573135#1 -115744546#0 -8797176#2 8795651#6 468422742#0 -8796602#0 8797819#1 8797403#1 8796076#2 719395505#1 50568411#1 752702310 125568090#0 719395506#16 8797090#3 -8797131#2 -330310753#3 468422742#1 28317285#1 125568089#0 330310753#4 719395510#0 621527175#9 50573121 8796353#4 8797131#6 8797090#4 -45308484#1 -8797259#6 115744546#1 -484878996#2" />
    <trip id="22" depart="440.00" from="752702309" to="719395506#1" via="468421271#0 589533491#0 -8796216#3 719026490#1 -8796216#1 -330310713#3 45270121#3 -8797090#4 8796806#2 484879000#1 -8795503#3 -8797131#4 -8795651#6 484878996#1 8796806#4 -28317285#1 -8797130#4 59432574#1 269095741 -8797259#6 468421272 8797259#5 8797819#4 50575480#0 397303084#1 -484878996#8 469146402#0 -719395505#3 719395506#16 590571542#1 40802860#1 8795651#2 -8797554#0 -8797554#3 8797819#3 8797259#5 8797399#1 468421269#0 -8797131#11 -361085968#1" />
    <trip id="23" depart="460.00" from="686997726" to="8796806#0" via="719395507 8796602#0 719395506#9 50575476#1 38015401#1 -8797399#3 -8797403#1 719026490#1 -115744546#0 590571550 -484878996#9 590571552#1 -8796602#1 484878996#4 469146407#1 330310713#3 719395506#13 468421254 719395509#0 8797554#3 -8796076#2 -484879000#0 374711603#2 8796806#4 -8797259#2 -361085968#1 719395510#0 -397303085#0 8797554#2 8797130#3 484878996#2 -8797130#4 -8796806#0 8797090#3 50568411#1 -8796076#3 8796806#3 -8796806#2 -8796076#2 8795651#0" />
    <trip id="24" depart="480.00" from="-8796806#4" to="-484879000#1" via="44465157#1 8795651#2 468422741#0 873644681#2 40802860#2 -484879000#0 468422740#0 -8797090#1 -8795503#4 -8796806#3 -361085968#1 8797399#4 468421268#1 -330310713#3 590571554 190641518#1 8797259#7 719395506#6 484878996#5 719395508 469146407#2 621527175#19 8797259#6 8796806#2 564768404#1 -484878996#3 125568085 -50568411#2 484878996#2 -8797403#2 468421271#1 -8797130#3 621527175#1 -8796353#2 -8797131#4 686997726 -8795503#0 8795503#0 50575480#0 330310713#3" />
    <trip id="25" depart="500.00" from="-589533495#0" to="-8795651#3" via="125568090#0 8797259#5 374711603#2 468422740#0 50575476#1 -156723058#1 361085968#0 50568411#2 484878996#7 468421271#0 50568411#2 -8796806#1 621527175#4 -190641518#1 -8797131#3 8797554#3 8796806#1 8797090#3 -8797131#9 589533490 913105420#1 589533498#0 38015401#0 8795651#2 484878996#8 50575475 8796353#2 8796806#5 621527175#6 686997726 44465157#0 -330310753#4 -484878996#8 50568411#1 484878996#7 -8796353#1 8796076#3 631833935#1 719395506#5 -8795503#0" />
    <trip id="26" depart="520.00" from="125568090#1" to="777809605#3" via="-484878996#7 8796806#3 8797259#2 589533491#1 269095741 -8797176#2 468421271#1 8796602#1 468422741#0 719395506#13 190641518#1 484878996#9 8795503#4 777809606 -8796806#0 8797819#0 8797259#6 -8796353#1 -8797090#1 -8797259#0 913105420#1 8795503#3 8797554#2 469146400 -269095741 361085968#0 -8797090#4 590571552#1 -484878996#5 -8797176#1 8797231#1 8796601#1 -8797403#2 -361085968#1 -8797130#4 719395506#11 8796353#4 -8797554#1 8795651#2 719395506#3" />
    <trip id="27" depart="540.00" from="45270121#3" to="468421255#0" via="777809606 469146407#0 719026490#1 -8797403#3 8797090#4 -330310713#0 8796602#1 8797090#3 484878996#2 -8797130#3 50575476#1 -45308484#1 374711603#1 -8797554#2 -8797131#4 -8795651#1 -50568411#1 -361085968#0 -8795503#0 8796806#1 330310753#4 8797090#3 -330310753#1 397353599-AddedOnRampEdge -50568411#2 40802860#0 8796806#5 45308541#1 589533495#2 719395509#1 8797819#1 40802860#1 -361085968#0 484878996#9 8796353#4 469146400 686997726 564768404#1 8797403#1 484879000#1" />
    <trip id="28" depart="560.00" from="484878996#2" to="-8797259#6" via="24485699 330310753#3 468422742#0 397303085#0 -8795651#0 8796570#0 115744546#1 468422740#0 -8797554#2 8795651#0 719395505#4 686997726 -484878996#4 8796216#1 -8797259#5 468421256#0 719395505#3 -8796806#3 708578563#1 -8797130#3 -8797399#1 621527175#17 484878996#8 469146407#2 -8797131#2 59432574#1 8797819#0 24485699 125568084#1 8797131#11 -8797131#10 -8797130#4 -8796076#1 589533491#1 374711603#2 -8797090#4 374711603#2 8795503#3 40802860#0 628473035#0" />
    <trip id="29" depart="580.00" from="-8797176#1" to="8795651#6" via="-8797131#3 590571542#1 397303083#1 -8796602#0 -8797131#7 -8795651#3 628473035#0 468422742#0 621527175#4 777809606 45270121#2 -8797131#2 -45270121#4 -8796076#0 -719395505#2 -719395505#2 59432574#1 44465157#0 621527175#18 330310713#3 -484878996#1 8797554#1 621527175#4 719395506#13 752702309 -589533495#2 -8797259#1 -397303084#1 484878996#2 719395505#3 -8796353#7 50568411#0 719395505#1 -8795651#3 8796806#4 125568084#1 719395510#1 719395509#0 708578563#1 589533491#1" />
    <trip id="30" depart="600.00" from="719395506#3" to="708578563#1" via="8796216#3 -8797259#5 468421267 8797131#4 45270121#2 45308484#1 719395506#12 8796806#4 873644681#1 -397303084#1 8797819#4 8797259#1 8797259#2 330310753#4 8797554#2 -719395505#4 -484878996#2 -28317285#2 8797819#0 777809605#3 -397303084#1 8797259#6 397303086#0 330310753#3 -8797259#5 -8797259#0 469146407#0 468421252 50568411#1 621527175#9 484878996#7 8797399#1 -8797131#11 45308541#0 8796806#0 468421270 621527175#15 397303085#0 590571554 719395510#1" />
    <trip id="31" depart="620.00" from="330310713#0" to="8796602#0" via="484878996#3 8797403#2 708578563#1 -330310753#3 8795651#1 484878996#8 8797819#3 -484878996#3 8797259#2 -8797554#2 8796601#1 873644681#0 913105420#1 50573121 719395506#6 50575480#1 484878996#8 50572951#1 -8796806#5 719395506#9 719395505#3 -484878996#8 913105420#2 8796806#2 468421272 40802860#0 621527175#9 38015401#0 330310753#3 -8796353#2 8796216#1 -8796806#3 719395508 374711603#0 40802860#2 -719395505#4 468421254 40802860#0 -50568411#2 -8797259#2" />
    <trip id="32" depart="640.00" from="-8796353#1" to="8797131#3" via="-8797090#0 8796353#0 -269095741 -330310753#3 45270121#4 719395506#1 -8797090#3 -8795651#0 -484878996#8 719395506#3 719395506#6 8797130#4 468421268#1 8795503#4 45270121#3 719395506#10 -8796806#0 50568411#0 -115744546#1 330310753#4 -8796806#2 125568088#0 468421272 8796076#2 8797554#3 589533495#2 269095741 50568411#1 8797131#7 8797090#3 621527175#14 190641518#1 484878996#2 45270121#5 -8797130#4 -8796353#1 913105420#0 484878996#9 397303083#1 719395506#11" />
    <trip id="33" depart="660.00" from="468421268#1" to="484878996#7" via="-50568411#0 45270121#5 -8796601#1 873644681#1 -8796076#0 719395508 8796353#1 -45270121#0 -50568411#2 -45270121#2 -8797259#0 719395505#1 -50568411#1 719395506#11 -719395505#3 8796806#1 484878996#9 -8797131#11 752702310 -50568411#1 621527175#18 8797090#0 589533498#0 8796601#1 468421272 -8797090#3 -8797131#2 -8795651#3 45308541#1 8797554#1 8795651#0 -28317285#2 -8796806#0 330310753#1 -8797554#2 28317285#1 8797090#4 50573035#1 8797131#7 -8795651#6" />
    <trip id="34" depart="680.00" from="8796353#7" to="-45270121#2" via="719395505#3 50568411#1 589533491#1 589533498#0 -8797403#1 397353599-AddedOnRampEdge 468421268#0 50573135#1 -484879000#0 50568411#2 631833935#1 8796806#3 913105421 50573135#1 -8796216#1 50568411#1 468422741#1 45270121#6 468421270 -115744546#1 50572954#1 -8796806#3 -8797403#3 374711603#2 50572951#1 40802860#0 -45308484#1 -8796602#1 468422742#1 -8797554#3 -8797403#1 -8795651#6 8797554#3 -8797259#2 -45270121#3 8797259#7 469146407#1 590571554 374711603#2 8795651#1" />
    <trip id="35" depart="700.00" from="-589533495#1" to="719395510#0" via="50575476#1 468422740#1 8797131#7 -8797131#10 8796216#3 45270121#4 -397303086#0 8797130#4 -8797130#3 621527175#19 -8797403#1 -330310713#0 8795503#4 468421269#1 777809605#1 -8797130#4 589533495#1 -397303084#1 -269095741 -8796602#1 719395510#1 719395506#9 -8797554#0 468421253 468421252 8796602#1 -484878996#1 8796216#1 125568090#1 -8797554#2 125568084#1 589533495#1 484878996#4 50575478 50575480#2 8796806#3 50575475 590571552#1 50573135#1 -8797403#3" />
    <trip id="36" depart="720.00" from="-8795503#4" to="397303086#0" via="-8796806#0 719395505#1 -269095741 719395506#13 -8797131#3 8796353#2 -8797399#3 777809605#1 -8797131#11 8797131#11 719395507 -8796216#1 564768404#1 8795651#2 484878996#4 -8797399#3 -28317285#2 468421268#0 590571542#1 8795651#0 -8797131#6 621527175#16 719395505#4 -8796601#1 468422742#1 -397303086#0 50572954#1 50572951#1 621527175#16 468421271#0 -8796602#0 468421272 -397303084#1 590571542#1 -8797131#10 8797131#11 38015401#1 -8797131#6 8795651#2 8796353#7" />
    <trip id="37" depart="740.00" from="50572954#1" to="-484878996#7" via="-269095741 468422741#1 873644681#0 8797131#10 484878996#9 -8797090#1 468421268#0 719026490#1 -484878996#8 -50568411#0 -8795651#6 -8797399#3 330310753#4 -8797554#0 631833935#1 -484878996#2 8796806#4 361085968#1 719395506#12 -8797130#4 -330310753#4 719395510#0 8797090#1 -190641518#1 8796806#4 589533495#2 589533490 397303084#1 468421256#1 50568411#2 913105421 -8797403#1 50568411#2 719395505#3 38015401#1 8797231#1 -8797403#1 -8796353#0 -484878996#3 8796353#4" />
    <trip id="38" depart="760.00" from="-8797090#1" to="40802860#2" via="719395506#2 397303084#0 873644681#2 -8797554#3 50573135#1 -8797554#3 -8796076#0 -45270121#5 125568090#0 589533496 156723058#1 -8796353#7 8796353#7 719395505#1 8797259#1 -397303084#0 8797259#0 -397303084#1 8797131#2 -330310753#4 40802860#1 8795503#4 -8797399#4 8796806#5 125568084#1 8795503#4 484878996#3 -269095741 374711603#0 719395506#9 59432574#2 8797131#4 589533498#0 -8797259#5 -8796076#1 -45270121#0 8797554#2 8797131#9 330310753#4 468422741#0" />
    <trip id="39" depart="780.00" from="8797259#7" to="760507889" via="719395506#1 8797819#4 468421268#1 -8796602#0 8796216#3 59432574#1 590571552#1 8796353#2 44465157#0 8797399#1 8796353#7 45308541#1 719395506#10 469146407#3 -484879000#0 468421268#1 589533496 190641518#1 484879000#1 -8797176#1 -8797259#5 -8797403#2 125568085 -8795651#3 24485699 -8797259#5 -484879000#1 913105420#2 469146402#0 -484878996#2 50572954#1 777809605#1 24485699 8795651#0 -45270121#4 8796806#5 484878996#5 468422741#0 8797131#2 -330310713#3" />
    <trip id="40" depart="800.00" from="468421255#1" to="40802860#0" via="-589533495#2 590571542#0 621527175#18 8796806#2 621527175#14 330310753#3 -8797131#4 115744546#1 621527175#15 -330310753#1 8796076#0 330310713#1 484879000#1 589533495#0 468421269#1 -330310713#3 777809605#3 564768404#1 468421268#1 -8797090#3 590571550 24485699 330310713#3 8797131#6 8796216#3 8797819#4 50575480#2 50575480#1 631833935#0 484878996#5 468422740#1 24485699 590571550 40802860#2 8797259#1 -8796806#0 719395506#11 8797554#2 190641518#1 8797131#3" />
    <trip id="41" depart="820.00" from="-8797554#0" to="8797399#4" via="469146407#3 468421256#1 719395506#5 469146407#0 330310713#0 -8796353#0 50568411#1 719026490#1 468422740#0 484878996#5 469146407#3 59432574#1 374711603#0 330310753#4 468421253 468421268#0 468421270 8796216#3 8796076#1 8796570#0 -8797131#6 8797554#1 8796076#3 40802860#0 50568411#1 -8797399#3 -8797090#1 8797090#4 45270121#4 8796602#0 40802860#1 873644681#2 -330310713#1 40802860#1 38015401#1 484879000#0 -8797176#2 -484878996#3 8796601#1 8796601#1" />
    <trip id="42" depart="840.00" from="8797554#3" to="8796806#4" via="8797403#2 777809605#1 8796602#0 621527175#16 8797819#4 8797259#6 -719395505#2 8797554#1 330310713#1 628473035#0 8797554#3 45308541#0 621527175#4 -8796353#1 -8797130#3 468422740#0 468422742#1 -397303086#0 777809605#3 468421270 -269095741 8797131#7 50573135#1 45270121#5 156723058#1 45308541#1 719395506#5 40802860#0 -484878996#8 590571554 -8796353#1 468421269#1 -589533495#2 8797131#11 873644681#1 125568090#0 -484878996#9 8797131#7 468421273#0 -719395505#4" />
    <trip id="43" depart="860.00" from="719395505#4" to="-8797090#4" via="59432574#1 -45270121#5 28317285#1 8795651#2 -50568411#2 484878996#4 -8795651#1 125568090#0 565167471 -484879000#1 -8796076#3 -50568411#1 -8797399#1 589533495#1 45270121#2 484878996#4 8797399#1 38015401#0 621527175#13 397303085#1 50575476#1 8797131#9 -8797259#0 468421255#0 8797090#1 -8796806#1 -330310753#4 8797131#4 -484878996#2 -397303084#1 -8796076#1 913105420#2 -8795651#0 719395506#11 468421254 8797090#3 -8797554#2 621527175#1 -50568411#1 -330310713#1" />
    <trip id="44" depart="880.00" from="-8797403#2" to="45270121#2" via="873644681#2 -45270121#3 8797131#4 8797819#3 -8797131#9 719395505#4 8797131#6 -45270121#0 621527175#1 125568089#0 40802860#1 -397303084#1 469146407#3 631833935#1 752702309 374711603#0 45270121#4 -8797399#3 -589533495#0 719395505#1 589533491#0 45270121#6 621527175#4 468421253 -8796353#2 50575480#1 8797819#0 484878996#8 -8795651#2 8797819#4 719395506#12 -8797131#3 8796806#3 8795503#4 50575478 -330310713#1 589533495#2 -269095741 589533490 8796353#0" />
    <trip id="45" depart="900.00" from="8796353#4" to="913105421" via="-8797259#2 8796602#0 8796806#3 -397303086#0 50568411#0 50572954#1 -8796806#5 50568411#2 -397303084#0 621527175#15 397303084#1 8797131#6 8797259#6 8796216#3 -484879000#1 50575480#1 190641518#1 -8796806#0 -8795503#3 719395506#10 -269095741 719395509#1 45308541#1 8797399#1 45308541#1 8797090#0 -8797130#4 8796216#3 8795503#3 469146400 8797554#0 468421253 -8797090#4 589533495#2 -269095741 468421253 330310753#4 45308541#1 -8795651#2 397303085#1" />
    <trip id="46" depart="920.00" from="913105420#2" to="-8796076#2" via="-8797259#5 719395506#5 8796806#1 8797819#0 719395508 -330310713#0 8797090#0 50573135#0 -361085968#1 468421256#0 719395506#16 -8796216#3 719395506#2 484878996#1 50575480#1 8795503#0 -361085968#0 590571552#1 484878996#3 -8797131#6 621527175#14 -8796601#1 628473035#0 719395506#5 -28317285#1 -8796076#2 468421255#1 708578563#1 -8797131#7 8797259#6 621527175#15 -269095741 -397303084#0 8797131#10 565167471 24485699 621527175#9 190641518#1 8797259#5 -8797090#1" />
    <trip id="47" depart="940.00" from="8797554#0" to="330310753#3" via="38015401#1 -45270121#3 484878996#7 8796076#1 484878996#7 8797130#4 -190641518#1 397303084#0 374711603#0 -484878996#9 468421269#1 -8795651#2 45308484#1 590571542#1 -397303084#1 8797554#2 -484878996#4 484878996#1 8797554#0 8797554#3 719395508 59432574#2 8796806#5 -8797176#2 50575476#1 330310753#1 484878996#7 -8796353#2 8797819#2 -484878996#4 468421273#0 8797819#4 -330310713#3 125568090#1 40802860#1 468421272 8797090#0 -8796353#4 913105420#0 468421267" />
    <trip id="48" depart="960.00" from="621527175#15" to="590571542#1" via="125568090#0 -8796076#3 -8797399#3 590645027 719395506#12 38015401#1 -330310713#3 -45308484#1 -115744546#1 590571542#1 913105420#2 -8795651#1 468422741#1 8797819#1 719395506#11 564768404#1 -8797259#5 -8796602#0 190641518#1 484878996#2 50575476#1 719395506#2 44465157#0 621527175#18 -589533495#0 8796570#0 590571554 8796076#1 -330310713#2 397303086#0 -8796353#2 -28317285#2 469146402#1 50568411#0 -8797176#1 8797259#7 719395510#1 8797130#4 -8795651#2 8795651#0" />
    <trip id="49" depart="980.00" from="-8796076#3" to="468421252" via="8796353#1 719395506#12 -484878996#1 50575475 469146407#2 115744546#1 330310713#3 468421272 621527175#17 -484878996#8 38015401#0 8795503#0 8797259#6 719026490#1 590571542#1 719395506#9 -484878996#8 719026490#1 8796806#1 469146402#1 873644681#0 8797131#11 125568084#1 8795651#6 -45270121#3 8796601#1 -8797259#6 468421273#0 913105420#2 125568085 8796353#7 468421252 50573035#1 40802860#0 156723058#1 -8797554#3 24485699 125568084#1 8795651#2 8797231#1" />
    <trip id="50" depart="1000.00" from="468422742#0" to="45308541#1" via="8796602#1 719026490#1 484878996#8 361085968#1 8796353#0 708578563#1 8796601#1 468422740#1 -8797176#2 590571554 8797554#2 -8797554#1 59432574#2 8796806#4 -397303083#1 50573135#0 45270121#2 40802860#0 125568090#0 -8796076#0 8797259#7 589533495#0 484878996#8 -8796076#3 115744546#1 50575480#1 -8797554#2 564768404#1 45270121#4 777809605#0 8795503#0 777809605#3 -330310713#0 -115744546#0 8797819#4 8797399#3 330310753#1 468421252 -8796076#0 -8797131#10" />
    <trip id="51" depart="1020.00" from="468422742#1" to="719395505#3" via="589533495#1 397303085#1 468421255#1 -8796076#0 -397303084#0 330310753#4 -8796806#2 125568084#0 8796076#0 8797131#9 589533491#1 -484878996#5 50575478 719395506#10 468422741#0 621527175#19 468422740#0 719395506#10 -8795651#2 50572951#1 44465157#0 374711603#2 374711603#2 484879000#0 -8795651#0 -8796353#1 125568089#0 8796216#3 -8797403#2 45308541#1 8795651#0 330310753#4 8795651#0 719395506#12 719395505#3 8797131#11 -8795651#3 -8796806#2 8796570#0 719395506#10" />
    <trip id="52" depart="1040.00" from="-8797554#0" to="8795651#1" via="621527175#18 8797090#0 45270121#2 330310753#1 397303084#1 -8795651#1 8796353#4 621527175#9 468421269#0 468422740#0 719395509#1 631833935#1 468421256#1 -8797090#3 590571542#1 8797403#2 468422741#1 28317285#1 8796806#5 -397303083#1 45270121#3 719395506#11 873644681#1 -8795651#3 -8795503#3 589533498#0 719395506#9 -115744546#0 -719395505#2 589533495#2 -484878996#2 -8796806#3 8797131#11 8797090#0 760507889 469146402#1 8796806#5 -484878996#2 -8797090#1 330310713#2" />
    <trip id="53" depart="1060.00" from="8797090#0" to="-8796353#4" via="8797131#9 468421256#1 -8796806#0 -8797090#3 468421252 -115744546#1 -8797090#1 8797819#1 50572951#1 -330310713#1 -8795503#3 -8796602#1 719395506#13 621527175#13 -589533495#1 -330310713#2 468421271#1 468421269#0 913105420#2 45270121#6 589533495#1 374711603#2 631833935#1 621527175#6 -397303085#0 45308541#1 -8797403#1 50575480#0 -8797131#2 -330310713#1 -45270121#0 621527175#9 40802860#0 50572954#1 -50568411#1 -8795651#3 469146402#1 8797130#3 8796353#1 8797130#3" />
    <trip id="54" depart="1080.00" from="8797554#2" to="777809605#3" via="397303084#0 468422742#0 -8796353#7 8797259#1 -8797131#11 8795651#3 8795651#2 40802860#2 -330310753#1 8797819#2 468421272 468421255#0 -8797403#3 -484878996#7 -8797554#2 589533495#1 -484878996#4 -8797403#1 -8797259#2 8797259#0 8797090#1 -484878996#7 -8797090#1 374711603#1 719395510#0 590571542#0 -484878996#7 468421256#1 397303085#0 719395510#0 468421254 469146407#0 719026490#1 589533498#1 468421255#0 50572951#1 590571554 8797130#3 719395506#5 8796076#2" />