<?xml version='1.0' encoding='UTF-8'?>
<edges>
  <edge id="22088826" from="237699569" to="Custom340" numLanes="1" width="4.0" shape="-2.970411,461.335145 -4.616567,563.494063 "/>
  <edge id="22100709" from="Custom341" to="237751385" numLanes="1" width="4.0" shape="-1134.861011,-436.190981 -951.255941,-430.564084 -951.128160,-430.564251 -935.968870,-431.068699 -672.139259,-427.272940 -381.827885,-422.805128 "/>
  <edge id="22101964" from="237824585" to="Custom342" numLanes="1" width="4.0" shape="1.854951,-406.849410 1.127095,-342.384577 1.127124,-342.337038 1.385885,-321.603884 "/>
  <edge id="243244291" from="2506655987" to="2506656054" numLanes="1" width="4.0" shape="-343.980756,87.074584 -255.100957,89.266688 "/>
  <edge id="243244292" from="237639316" to="2506656031" numLanes="1" width="4.0" shape="-155.799221,254.771127 -158.871178,255.961101 -177.248567,255.745418 -183.530749,253.551012 "/>
  <edge id="243244293" from="2506655995" to="2506656049" numLanes="1" width="4.0" shape="-154.396077,152.725294 -157.837893,149.905996 -157.985310,149.796164 -158.142189,149.700331 -160.345047,148.490033 "/>
  <edge id="243244294" from="2506656021" to="2506655979" numLanes="1" width="4.0" shape="-338.748256,130.965219 -333.695418,137.100766 -333.584736,137.224341 -333.464194,137.338318 -333.334620,137.441913 -330.647261,139.413491 -330.481520,139.522861 -330.305749,139.615256 -327.001539,141.147856 -326.843299,141.213176 -326.680053,141.264725 -326.512996,141.302125 -321.850882,142.138121 -321.566385,142.168346 -292.428922,143.166979 -292.232609,143.164065 -292.037527,143.141917 -289.200135,142.677746 -289.009120,142.636830 -288.823007,142.577475 -288.643573,142.500247 -288.472530,142.405881 -288.311508,142.295280 -286.506025,140.920696 -286.346933,140.785912 -286.202739,140.635298 -286.075009,140.470490 -284.370597,138.017093 -284.231598,137.784927 -280.400911,130.276624 "/>
  <edge id="243244295" from="2506656019" to="2506656010" numLanes="1" width="4.0" shape="-251.864534,342.653229 -173.897466,343.428534 "/>
  <edge id="243244296" from="2506656050" to="2506656013" numLanes="1" width="4.0" shape="-173.680095,323.717098 -251.502835,322.940617 "/>
  <edge id="243244298" from="2506656008" to="2506655983" numLanes="1" width="4.0" shape="-176.488824,146.087495 -248.139517,146.025871 "/>
  <edge id="243244300" from="2506656014" to="2506656025" numLanes="1" width="4.0" shape="-166.081524,360.546771 -153.038184,360.669619 "/>
  <edge id="243244301" from="2506656028" to="2506656022" numLanes="1" width="4.0" shape="-173.275780,286.852235 -250.809764,286.080991 "/>
  <edge id="243244302" from="2506656034" to="2506656029" numLanes="1" width="4.0" shape="-176.888402,216.605876 -249.505207,216.538358 "/>
  <edge id="243244304" from="2506656042" to="2506656036" numLanes="1" width="4.0" shape="-249.157541,202.506193 -176.785277,202.553559 "/>
  <edge id="243244306" from="2506656016" to="2506656024" numLanes="1" width="4.0" shape="-251.189730,309.066950 -173.522522,309.837156 "/>
  <edge id="243244307" from="2506656038" to="2506656040" numLanes="1" width="4.0" shape="-344.262739,106.598805 -255.436112,108.951656 "/>
  <edge id="243244310" from="2506656049" to="2506656045" numLanes="1" width="4.0" shape="-160.286555,147.162090 -159.762591,146.825986 -157.403215,145.312010 -157.269110,145.217989 -157.143147,145.113310 -153.406014,141.739599 -153.236177,141.566467 -153.088545,141.374052 -147.903238,133.692725 "/>
  <edge id="243244311" from="2506655997" to="5041488830" numLanes="1" width="4.0" shape="-190.597628,75.083340 -193.082944,76.680139 -196.282780,77.479048 -202.404157,77.436851 "/>
  <edge id="243244312" from="2506656031" to="237639316" numLanes="1" width="4.0" shape="-183.518726,253.172041 -177.229161,251.413529 -158.613568,251.808729 -155.859202,252.499782 "/>
  <edge id="243244317" from="2506656014" to="2506655990" numLanes="1" width="4.0" shape="-174.043465,356.471543 -252.132148,355.734866 "/>
  <edge id="243244318" from="2506655992" to="2506656035" numLanes="1" width="4.0" shape="-176.690135,181.205496 -248.851641,181.141211 "/>
  <edge id="243244319" from="2506656056" to="2506656047" numLanes="1" width="4.0" shape="-248.502645,167.276407 -176.585395,167.342982 "/>
  <edge id="243245597" from="2506666661" to="2506637238" numLanes="1" width="4.0" shape="-389.435676,51.861561 -390.553859,110.712080 -390.546488,110.925765 -390.516348,111.137442 -390.463783,111.344692 -389.756814,113.615059 -389.686137,113.806887 -389.596248,113.990498 -389.488084,114.163973 -389.362777,114.325501 -389.221635,114.473392 -389.066134,114.606103 -388.897897,114.722247 -388.718682,114.820610 -388.530363,114.900164 -386.295474,115.712347 -386.090904,115.774530 -385.880865,115.814519 -385.667757,115.831857 -358.420263,116.586831 "/>
  <edge id="243245599" from="2506666634" to="Custom343" numLanes="1" width="4.0" shape="-359.565213,165.900675 -445.929321,164.204481 -463.722403,163.857992 "/>
  <edge id="243245600" from="Custom344" to="2506666633" numLanes="1" width="4.0" shape="-408.673662,47.514590 -409.049584,66.235029 -410.338193,130.265394 -410.331053,130.479193 -410.301119,130.691006 -410.248734,130.898410 -409.544285,133.168403 -409.473686,133.360553 -409.383815,133.544479 -409.275614,133.718255 -409.150216,133.880060 -409.008935,134.028200 -408.853252,134.161122 -408.684797,134.277434 -408.505334,134.375917 -408.316745,134.455539 -406.082672,135.266732 -405.877982,135.328884 -405.667825,135.368819 -405.454605,135.386079 -358.891305,136.656067 "/>
  <edge id="243245664" from="2506667448" to="2506667445" numLanes="1" width="4.0" shape="-153.161859,409.808594 -163.257997,409.788714 -165.143453,408.947474 -168.227900,407.571277 -168.410781,407.500219 -168.599744,407.447422 -168.792972,407.413393 -168.988604,407.398462 -197.424040,406.627462 "/>
  <edge id="243245665" from="5041458570" to="5041458569" numLanes="1" width="4.0" shape="-183.364282,376.160836 -174.501604,376.301507 "/>
  <edge id="243245668" from="2506667432" to="2506667443" numLanes="1" width="4.0" shape="-245.549181,390.566975 -205.288643,391.407681 "/>
  <edge id="243245670" from="5041458568" to="5041458567" numLanes="1" width="4.0" shape="-183.436671,380.240413 -174.573617,380.414315 "/>
  <edge id="467502105" from="4621151989" to="Custom345" numLanes="1" width="4.0" shape="-229.540267,657.937944 -230.277648,713.901861 -230.270479,714.099438 -230.243837,714.295342 -230.197983,714.487658 -230.133366,714.674507 -227.425871,721.406254 -227.348865,721.574727 -227.256602,721.735354 -227.149874,721.886755 -227.029596,722.027633 -226.896800,722.156778 -226.752625,722.273083 -226.598308,722.375550 -217.453437,727.855149 "/>
  <edge id="516436256" from="5041458566" to="5041458565" numLanes="1" width="4.0" shape="-183.518333,384.153648 -174.643425,384.393880 "/>
  <edge id="516436257" from="2506667444" to="5041458566" numLanes="1" width="4.0" shape="-197.202218,383.787692 -183.517683,384.153665 "/>
  <edge id="516436258" from="2506667441" to="5041458568" numLanes="1" width="4.0" shape="-197.140356,379.977433 -183.435811,380.240430 "/>
  <edge id="516436260" from="2506667429" to="5041458570" numLanes="1" width="4.0" shape="-197.090141,375.942977 -183.364281,376.160836 "/>
  <edge id="516440740" from="5041488831" to="2506656057" numLanes="1" width="4.0" shape="-213.929412,77.351730 -220.003909,77.304386 -220.230905,77.315530 -220.455171,77.352355 -220.673812,77.414386 -223.328370,78.333420 -223.521541,78.411795 -223.705505,78.509851 -223.878263,78.626524 -224.037937,78.760546 -226.455260,81.014386 -226.597509,81.161309 -226.724010,81.321989 -226.833442,81.494748 -226.924660,81.677779 -226.996711,81.869167 -228.068981,85.229242 -228.119652,85.420087 -228.151257,85.614997 -228.163488,85.812075 -228.375976,102.675381 "/>
  <edge id="516440741" from="5041488830" to="5041488831" numLanes="1" width="4.0" shape="-202.403174,77.436857 -213.930229,77.351724 "/>
  <edge id="577111006" from="Custom346" to="Custom347" numLanes="1" width="4.0" shape="-464.019011,180.786009 -365.188365,182.107671 "/>
  <edge id="577111008" from="Custom348" to="Custom349" numLanes="1" width="4.0" shape="-465.440784,256.587566 -376.003118,258.982356 -375.790337,258.976723 -375.579360,258.948508 -375.372576,258.898030 -373.086402,258.209167 -372.896184,258.141198 -372.713793,258.054388 -372.541089,257.949623 -372.379832,257.827972 -372.231669,257.690676 -372.098111,257.539134 -371.980520,257.374894 -371.880095,257.199630 -371.797862,257.015130 -370.937190,254.787941 -370.871138,254.585594 -370.826965,254.377372 -370.805172,254.165635 -367.882553,194.963850 "/>
  <edge id="577111013" from="Custom350" to="Custom351" numLanes="1" width="4.0" shape="-468.866272,437.980814 -420.434690,438.563151 -336.298447,439.580977 "/>
  <edge id="577120373" from="5533394551" to="5533394548" numLanes="1" width="4.0" shape="-304.505971,680.542133 -275.633189,680.880757 -275.433327,680.873100 -275.235230,680.845519 -275.040878,680.798290 -274.852216,680.731885 -274.671129,680.646970 -274.499428,680.544392 -274.338832,680.425177 -269.938002,676.803415 -269.789856,676.668496 -269.655954,676.519429 -269.537640,676.357712 -269.436101,676.184968 -269.352357,676.002930 -269.287249,675.813427 -269.241429,675.618359 -269.215359,675.419686 -268.056185,661.026559 -268.050128,660.826118 -268.064174,660.626078 -268.098181,660.428450 -268.151808,660.235221 -268.224515,660.048333 -270.029162,656.019989 "/>
  <edge id="577120385" from="5533394564" to="5533394567" numLanes="1" width="4.0" shape="311.266403,-22.432083 311.300170,-11.173629 310.979432,-10.206682 310.009454,-9.895232 270.180334,-10.396687 269.160294,-10.748962 268.815631,-11.771601 268.761677,-22.276987 "/>
  <edge id="577120387" from="5533394567" to="5533394564" numLanes="1" width="4.0" shape="268.763805,-30.255260 268.829439,-41.832336 269.163969,-42.815799 270.152638,-43.134615 309.969228,-42.725821 310.971478,-42.381060 311.302677,-41.374248 311.267339,-30.444508 "/>
  <edge id="577120390" from="5533394570" to="5533394569" numLanes="1" width="4.0" shape="184.743544,44.350541 184.867770,54.210674 "/>
  <edge id="577120394" from="5533394577" to="5533394578" numLanes="1" width="4.0" shape="183.237272,-30.970421 183.115072,-48.726279 183.102013,-48.941099 183.065948,-49.153271 183.007293,-49.360340 182.241949,-51.595764 182.173010,-51.770018 182.088065,-51.937054 181.987858,-52.095407 181.873271,-52.243686 181.745308,-52.380589 181.605094,-52.504915 181.453859,-52.615572 181.292931,-52.711588 181.123723,-52.792120 180.947720,-52.856463 178.692980,-53.562878 178.484443,-53.616078 178.271396,-53.646563 178.056308,-53.653979 169.511976,-53.488500 169.298074,-53.472855 169.087076,-53.434396 168.881410,-53.373563 166.647215,-52.580153 166.456739,-52.501233 166.275400,-52.403123 166.105125,-52.286864 165.947724,-52.153694 165.804870,-52.005026 165.678080,-51.842441 165.568703,-51.667667 165.477900,-51.482561 165.406636,-51.289090 164.702926,-49.025041 164.650341,-48.817113 164.620323,-48.604751 164.613219,-48.390394 165.049760,-27.111396 "/>
  <edge id="577120398" from="5533394583" to="Custom352" numLanes="1" width="4.0" shape="131.297732,146.329319 122.331941,144.646397 122.169802,144.622791 122.006275,144.612537 78.246971,143.664932 77.241909,143.306809 76.916484,142.290687 77.150438,120.429920 "/>
  <edge id="577120400" from="5533394585" to="5533394583" numLanes="1" width="4.0" shape="228.609619,62.886670 225.039558,147.144442 224.652782,148.167568 223.608694,148.493545 138.892485,147.099028 "/>
  <edge id="577120403" from="5533394587" to="5533394586" numLanes="1" width="4.0" shape="-10.888157,80.836867 -28.215751,81.121305 "/>
  <edge id="577120404" from="5533394588" to="5533394587" numLanes="1" width="4.0" shape="-9.700813,145.372050 -8.855514,82.863641 "/>
  <edge id="577120406" from="5533394589" to="5533394588" numLanes="1" width="4.0" shape="-31.984778,147.575210 -11.677946,147.344878 "/>
  <edge id="577120410" from="5533394593" to="5533394591" numLanes="1" width="4.0" shape="-2.545774,-10.047495 -23.197859,-10.216109 -23.411807,-10.206389 -23.623490,-10.173846 -23.830479,-10.118854 -26.089084,-9.387274 -26.280954,-9.314042 -26.464302,-9.221521 -26.637196,-9.110685 -26.797811,-8.982703 -26.944456,-8.838924 -27.075583,-8.680866 -27.189810,-8.510194 -27.285932,-8.328707 -27.362936,-8.138320 -28.138950,-5.894594 -28.198016,-5.688731 -28.234731,-5.477731 -28.248672,-5.264016 -28.827394,44.739086 -30.203949,49.780256 "/>
  <edge id="577120412" from="5533394594" to="5533394596" numLanes="1" width="4.0" shape="-54.294737,-27.705368 -54.058282,-47.551846 "/>
  <edge id="577120415" from="5533394598" to="5533394594" numLanes="1" width="4.0" shape="-9.380694,-28.515193 -56.242830,-29.728525 "/>
  <edge id="577120417" from="5533394598" to="5533394595" numLanes="1" width="4.0" shape="-7.165519,-32.909222 -33.696334,-47.861835 "/>
  <edge id="577120421" from="5533394601" to="Custom353" numLanes="1" width="4.0" shape="-136.665919,147.897824 -97.770537,147.822850 "/>
  <edge id="577120423" from="5533394603" to="5533394608" numLanes="1" width="4.0" shape="-137.594566,118.674258 -134.599506,120.391530 -134.510009,120.439863 -131.197388,122.121497 "/>
  <edge id="577120425" from="5533394608" to="5533394604" numLanes="1" width="4.0" shape="-131.884879,124.250618 -136.530289,125.802974 "/>
  <edge id="577120427" from="5533394611" to="5533394607" numLanes="1" width="4.0" shape="-62.581366,57.576220 -63.942543,73.281256 "/>
  <edge id="577120429" from="5533394607" to="5533394608" numLanes="1" width="4.0" shape="-66.262661,75.374825 -117.337684,74.551826 -117.551618,74.559838 -117.763471,74.590671 -117.970813,74.643973 -120.236114,75.357560 -120.428362,75.429150 -120.612265,75.520057 -120.785888,75.629324 -120.947405,75.755802 -121.095116,75.898160 -121.227467,76.054900 -121.343066,76.224374 -121.440696,76.404797 -121.519331,76.594272 -122.316014,78.831702 -122.376929,79.036937 -122.415558,79.247507 -122.431459,79.461000 -123.282851,120.401639 "/>
  <edge id="577120431" from="5533394607" to="5533394608" numLanes="1" width="4.0" shape="-64.461369,81.351630 -66.435642,128.393763 -66.820389,129.411754 -67.859969,129.733640 -111.386367,128.900431 -116.928694,125.342533 "/>
  <edge id="577120433" from="5533394616" to="5533394612" numLanes="1" width="4.0" shape="-96.565843,17.025160 -92.817441,13.494533 -75.654699,14.102159 -74.638331,14.478989 -74.313152,15.513040 -74.822414,49.504023 "/>
  <edge id="577120437" from="5533394619" to="5533394611" numLanes="1" width="4.0" shape="-136.256404,-4.238644 -65.500651,-3.236131 -61.350554,-3.152588 -60.215799,-1.215047 -60.788364,44.651052 -61.573628,49.481811 "/>
  <edge id="577120438" from="5533418521" to="5533394620" numLanes="1" width="4.0" shape="-116.686284,-26.533777 -116.524567,-46.458395 "/>
  <edge id="577120443" from="5533418528" to="5533418526" numLanes="1" width="4.0" shape="-121.999129,-108.200437 -122.437804,-73.350712 -122.809952,-72.256438 -123.890248,-71.845475 -134.249820,-71.344908 "/>
  <edge id="577120447" from="5533418538" to="5533418532" numLanes="1" width="4.0" shape="-74.260924,-124.246464 -74.258075,-123.996112 -74.572664,-123.019048 -75.546082,-122.693353 -120.777386,-122.692971 -127.890200,-125.576712 -128.053071,-125.634682 -128.220339,-125.678370 -128.390755,-125.707450 -128.563046,-125.721704 -132.543783,-125.878272 "/>
  <edge id="577120451" from="5533418542" to="Custom354" numLanes="1" width="4.0" shape="-34.622533,251.178659 -34.207558,191.850962 -33.857333,190.815363 -32.825856,190.453174 -6.294434,189.960429 "/>
  <edge id="577120453" from="5533418544" to="5533418543" numLanes="1" width="4.0" shape="-76.792572,238.550859 -59.240241,239.240908 "/>
  <edge id="577120455" from="5533418550" to="5533418543" numLanes="1" width="4.0" shape="-60.316527,195.515219 -61.161263,237.201933 "/>
  <edge id="577120457" from="5533418545" to="5533418544" numLanes="1" width="4.0" shape="-78.340115,195.402430 -78.713922,236.534228 "/>
  <edge id="577120459" from="5533418547" to="Custom355" numLanes="1" width="4.0" shape="-95.057420,195.138494 -95.136544,200.287228 "/>
  <edge id="577120463" from="5533418558" to="Custom356" numLanes="1" width="4.0" shape="-214.530261,658.220929 -214.597266,677.590696 -214.693742,707.465795 "/>
  <edge id="577120464" from="5533418565" to="5533418559" numLanes="1" width="4.0" shape="-167.677528,581.634409 -162.904428,579.197292 -155.283532,575.305077 "/>
  <edge id="577120465" from="9311564076" to="8270494448" numLanes="2" width="3.5" shape="-146.578250,658.887139 -147.202052,700.653113 -147.202162,700.661104 -147.326153,710.461358 -147.823870,710.805453 "/>
  <edge id="577120466" from="5533418562" to="5533418561" numLanes="1" width="4.0" shape="-174.897031,633.310645 -175.005736,585.514795 "/>
  <edge id="577120467" from="5533418563" to="5533418562" numLanes="1" width="4.0" shape="-194.719005,634.782207 -176.956913,635.314297 "/>
  <edge id="577120468" from="5533418564" to="5533418563" numLanes="1" width="4.0" shape="-199.909010,580.820699 -200.599370,628.634875 "/>
  <edge id="577120470" from="5533418566" to="5533418565" numLanes="1" width="4.0" shape="-174.362686,526.076108 -174.164826,577.679848 "/>
  <edge id="577120471" from="5533418582" to="5533418567" numLanes="1" width="4.0" shape="-275.892320,471.520231 -347.587863,469.826563 "/>
  <edge id="577120472" from="5533418568" to="5533418582" numLanes="1" width="4.0" shape="-253.243832,472.239231 -267.875962,471.749157 "/>
  <edge id="577120474" from="5533418571" to="5533418570" numLanes="1" width="4.0" shape="-176.337711,433.806522 -244.418671,433.297378 "/>
  <edge id="585657171" from="5596367827" to="Custom357" numLanes="1" width="4.0" shape="-166.929199,-303.920378 -170.240366,-278.625255 "/>
  <edge id="585657173" from="5596367833" to="5596367831" numLanes="1" width="4.0" shape="-199.057182,-364.615939 -198.104186,-375.102258 "/>
  <edge id="585657175" from="5596367837" to="5596367836" numLanes="1" width="4.0" shape="-226.231210,-407.024878 -232.223674,-407.258985 "/>
  <edge id="585657178" from="5596367846" to="5596367842" numLanes="1" width="4.0" shape="-135.379322,-422.185680 -140.903375,-422.274152 -159.737629,-426.253854 -159.950937,-426.287019 -160.166576,-426.297001 -160.382035,-426.283684 -160.594804,-426.247222 -169.898112,-424.130527 -170.076885,-424.081030 -170.250303,-424.015183 -170.416874,-423.933552 -170.575166,-423.836840 -170.723817,-423.725878 -170.861547,-423.601620 -170.987173,-423.465137 -174.791362,-418.926646 "/>
  <edge id="585657179" from="5596367849" to="Custom358" numLanes="1" width="4.0" shape="-134.595060,-446.580710 -154.644170,-447.466068 -154.859976,-447.463942 -155.074297,-447.438575 -155.284637,-447.390263 -157.549119,-446.739710 -157.728024,-446.679030 -157.900406,-446.601740 -158.064727,-446.508531 -158.219520,-446.400233 -158.363404,-446.277813 -158.495095,-446.142364 -158.613420,-445.995094 -158.717320,-445.837316 -158.805871,-445.670439 -158.878281,-445.495951 -159.677567,-443.279594 -159.739722,-443.072921 -159.779245,-442.860754 -159.795677,-442.645564 -160.095749,-429.150142 "/>
  <edge id="585657190" from="5596367868" to="5596367867" numLanes="1" width="4.0" shape="-116.157934,-597.230339 -113.185328,-597.044961 "/>
  <edge id="585657191" from="5596367870" to="5596367869" numLanes="1" width="4.0" shape="-115.597563,-616.004450 -112.938862,-615.812981 "/>
  <edge id="585657194" from="5596367881" to="5596367879" numLanes="1" width="4.0" shape="-99.738436,-416.815439 -99.494013,-419.598837 -99.028800,-420.698291 -97.891053,-421.059886 -56.567297,-420.854316 "/>
  <edge id="585657195" from="5596367889" to="5596367882" numLanes="1" width="4.0" shape="0.070217,-469.254659 -47.479811,-471.570452 "/>
  <edge id="585657196" from="5596367884" to="5596367883" numLanes="1" width="4.0" shape="-48.088498,-447.316308 -0.142841,-445.186723 "/>
  <edge id="585657197" from="5596367886" to="5596367885" numLanes="1" width="4.0" shape="-48.415150,-429.787273 -0.130702,-428.514269 "/>
  <edge id="585657201" from="5596367896" to="5596367895" numLanes="1" width="4.0" shape="-242.621597,-228.937921 -243.667665,-206.541016 "/>
  <edge id="586164494" from="5601174770" to="5601174760" numLanes="1" width="4.0" shape="-111.956968,-237.249638 -107.669508,-235.630590 -107.444472,-235.560458 -107.212747,-235.517289 -98.949284,-234.477087 -96.194127,-231.948954 -94.932972,-229.569389 "/>
  <edge id="586164495" from="5533418539" to="Custom359" numLanes="1" width="4.0" shape="-69.772457,-181.918859 -69.832965,-203.704978 "/>
  <edge id="586164496" from="5601174765" to="5601174766" numLanes="1" width="4.0" shape="-92.852447,-200.899323 -111.486900,-201.233439 "/>
  <edge id="586164503" from="5601174766" to="5596367909" numLanes="1" width="4.0" shape="-119.443944,-201.454707 -129.946991,-201.850578 "/>
  <edge id="586164504" from="5601174766" to="5601174770" numLanes="1" width="4.0" shape="-113.470897,-203.279449 -113.044042,-236.508416 "/>
  <edge id="586164507" from="5601174773" to="5601174772" numLanes="1" width="4.0" shape="-126.382572,-282.929595 -73.346891,-281.677557 "/>
  <edge id="586164508" from="5601174780" to="5601174785" numLanes="1" width="4.0" shape="-68.511754,-399.251901 -102.057440,-400.673589 "/>
  <edge id="586164509" from="5601174777" to="5601174776" numLanes="1" width="4.0" shape="-108.061146,-308.524413 -125.613788,-309.622162 "/>
  <edge id="586164510" from="5601174775" to="5601174777" numLanes="1" width="4.0" shape="-105.237452,-358.030567 -106.119511,-310.314920 "/>
  <edge id="586164513" from="5601174781" to="5601174780" numLanes="1" width="4.0" shape="-65.988665,-408.328769 -66.378832,-401.187476 "/>
  <edge id="586164515" from="5601174789" to="Custom360" numLanes="1" width="4.0" shape="298.044186,-303.701879 298.982641,-314.516918 299.473881,-315.702723 300.677579,-316.148329 315.562484,-316.868803 "/>
  <edge id="586164518" from="5601174799" to="5601174798" numLanes="1" width="4.0" shape="-113.427980,-568.783333 -116.952941,-568.906371 "/>
  <edge id="586164519" from="5601174800" to="5601174803" numLanes="1" width="4.0" shape="-372.237181,-486.479547 -313.205894,-485.260574 -312.992124,-485.267599 -312.780326,-485.297413 -312.572923,-485.349673 -310.302208,-486.052922 -310.110095,-486.123379 -309.926186,-486.213097 -309.752408,-486.321136 -309.590578,-486.446367 -309.442391,-486.587478 -309.309398,-486.742991 -309.192992,-486.911280 -309.094391,-487.090582 -309.014626,-487.279021 -308.201204,-489.512639 -308.138866,-489.717239 -308.098733,-489.927326 -308.081266,-490.140498 -307.381126,-514.906752 -307.386559,-515.121030 -307.414893,-515.333496 -307.465802,-515.541710 -308.151905,-517.812575 -308.221499,-518.006293 -308.310635,-518.191832 -308.418370,-518.367226 -308.543562,-518.530618 -308.684884,-518.680278 -308.840841,-518.814618 -309.009779,-518.932218 -309.189911,-519.031831 -309.379326,-519.112401 -311.607184,-519.927391 -311.812142,-519.990138 -312.022637,-520.030590 -312.236253,-520.048282 -371.341987,-521.764118 "/>
  <edge id="586164520" from="5601174805" to="5601174804" numLanes="1" width="4.0" shape="-140.050799,-550.871203 -131.554770,-550.486675 "/>
  <edge id="586164521" from="5601174807" to="5601174806" numLanes="1" width="4.0" shape="-139.580687,-574.030188 -130.806913,-573.820913 "/>
  <edge id="586164522" from="5601174809" to="5601174808" numLanes="1" width="4.0" shape="-139.177057,-593.619625 -130.150521,-593.621876 "/>
  <edge id="606549775" from="5750639519" to="Custom361" numLanes="1" width="4.0" shape="-136.710389,176.170799 -124.460819,176.700729 -124.401118,176.702419 -98.516010,177.048534 -87.491124,177.223887 -87.276759,177.215791 -87.064493,177.184781 -86.856770,177.131215 -84.596490,176.417071 -84.403245,176.344857 -84.218467,176.253120 -84.044122,176.142837 -83.882065,176.015181 -83.734020,175.871511 -83.601562,175.713354 -83.486101,175.542395 -83.388865,175.360450 -83.310888,175.169458 -82.529289,172.931609 -82.469519,172.725585 -82.432158,172.514345 -82.417637,172.300319 -82.250727,160.451948 "/>
  <edge id="606549777" from="5750640126" to="Custom362" numLanes="1" width="4.0" shape="-127.271276,337.020047 -127.292382,364.248425 "/>
  <edge id="606549779" from="5750640136" to="Custom363" numLanes="1" width="4.0" shape="-138.776265,581.527065 -122.838883,581.728027 "/>
  <edge id="606549781" from="9311564058" to="Custom364" numLanes="1" width="4.0" shape="-137.044370,607.908763 -122.463307,608.000827 "/>
  <edge id="606549782" from="9311564059" to="Custom365" numLanes="1" width="4.0" shape="-137.332004,626.240936 -129.945107,626.338370 -128.927236,626.690714 -128.584867,627.711983 -128.552912,637.090928 -128.539109,637.318786 -128.499430,637.543586 -128.434393,637.762401 -127.632014,639.988084 -127.554207,640.173975 -127.458088,640.351093 -127.344634,640.517639 -127.214995,640.671922 -127.070489,640.812377 -126.912583,640.937577 -126.742879,641.046251 -126.563100,641.137296 -124.230650,642.174366 -124.041743,642.247147 -123.846446,642.300457 -123.646760,642.333752 -123.444732,642.346690 -119.391124,642.400682 -119.381984,642.400782 -98.316895,642.585078 -98.102643,642.575453 -97.890653,642.542941 -97.683363,642.487916 -95.427687,641.757622 -95.235080,641.684096 -95.051066,641.591131 -94.877600,641.479718 -94.716525,641.351039 -94.569553,641.206462 -94.438244,641.047522 -94.323996,640.875910 -94.228021,640.693448 -94.151339,640.502076 -93.384082,638.258704 -93.325659,638.052347 -93.289668,637.840920 -93.276524,637.626855 -93.182567,625.397655 "/>
  <edge id="606549822" from="5601174772" to="Custom366" numLanes="1" width="4.0" shape="-75.299427,-283.709399 -75.467160,-273.356992 -75.812467,-272.375591 -76.805702,-272.065962 -87.797920,-272.285084 "/>
  <edge id="607171359" from="5754892991" to="5754893002" numLanes="1" width="4.0" shape="-106.326392,-536.797421 -105.163763,-537.611363 -104.997797,-537.741097 -104.846396,-537.887568 -104.711242,-538.049150 -104.593832,-538.224052 -104.495471,-538.410333 -104.417248,-538.605927 -102.945492,-542.934416 -102.898475,-543.094252 -102.864924,-543.257447 -102.845073,-543.422868 -102.367216,-549.555049 -101.001048,-551.914412 -98.680540,-552.700211 -94.496458,-552.671737 -82.932189,-552.216477 -74.008111,-551.755246 -69.127289,-549.370908 -67.737432,-547.870445 "/>
  <edge id="607171360" from="5754893013" to="5754893003" numLanes="1" width="4.0" shape="-65.601900,-536.271372 -65.303584,-540.836663 -65.300898,-541.046306 -65.320173,-541.255079 -65.361198,-541.460686 -65.423522,-541.660869 -65.506459,-541.853427 -65.609100,-542.036245 -67.836906,-545.558132 -67.947199,-545.715258 -68.072048,-545.861086 -68.210304,-545.994271 -68.360692,-546.113588 -68.521827,-546.217937 -68.692224,-546.306356 -68.870313,-546.378031 -69.054454,-546.432302 -73.686670,-547.558999 -73.886798,-547.597000 -74.089753,-547.614447 -79.437176,-547.800643 -84.287061,-548.165373 -84.471223,-548.170713 -84.655096,-548.159083 -84.837118,-548.130582 -89.190882,-547.241705 -89.382422,-547.192624 -89.568179,-547.124869 -89.746338,-547.039104 -89.915158,-546.936165 -90.072988,-546.817060 -90.218286,-546.682952 -90.349632,-546.535152 -92.681630,-543.634033 -92.803114,-543.465706 -92.906496,-543.285694 -92.990662,-543.095935 -93.054705,-542.898474 -93.938602,-539.598541 -93.985848,-539.369154 -94.005955,-539.135818 -94.045285,-537.699425 "/>
  <edge id="615043124" from="5533394548" to="Custom367" numLanes="1" width="4.0" shape="-272.181226,648.910804 -273.689677,639.946673 -272.734667,551.706830 "/>
  <edge id="615043125" from="5816802979" to="Custom368" numLanes="1" width="4.0" shape="-345.069216,652.698924 -347.172890,620.699612 -344.789626,538.001679 "/>
  <edge id="617578512" from="5837882468" to="Custom369" numLanes="1" width="4.0" shape="262.529146,63.629767 263.556166,105.115095 262.114396,135.233685 "/>
  <edge id="617578513" from="5837882471" to="Custom370" numLanes="1" width="4.0" shape="34.138309,59.519384 35.210903,123.630605 "/>
  <edge id="691751487" from="Custom371" to="5533418546" numLanes="1" width="4.0" shape="-95.338571,213.815180 -95.878497,249.997962 "/>
  <edge id="722462231" from="6776754810" to="Custom372" numLanes="1" width="4.0" shape="302.135296,-408.452824 302.329929,-415.133960 302.330751,-415.182047 302.600622,-468.348568 "/>
  <edge id="722462232" from="5837882471" to="6776754819" numLanes="1" width="4.0" shape="38.047871,51.474949 37.792826,7.526321 38.689633,-37.827639 41.852906,-42.226557 73.134191,-41.943828 75.789764,-37.920966 75.228492,0.695571 70.504786,21.380272 "/>
  <edge id="722462233" from="6776754820" to="6776754821" numLanes="1" width="4.0" shape="70.205232,31.666692 69.607433,52.065922 "/>
  <edge id="722462234" from="6776754819" to="6776754820" numLanes="1" width="4.0" shape="70.455206,21.775913 70.259097,29.676384 "/>
  <edge id="722462235" from="237635661" to="Custom373" numLanes="1" width="4.0" shape="139.108773,53.777002 141.031365,46.237436 147.926044,36.986239 148.041904,36.812542 148.139024,36.627712 148.216345,36.433764 148.273026,36.232812 148.308447,36.027046 148.322223,35.818709 149.540480,-52.408289 "/>
  <edge id="723318053" from="6784442428" to="Custom374" numLanes="1" width="4.0" shape="282.700496,265.628717 283.121505,312.759666 "/>