<?xml version="1.0" encoding="UTF-8"?>

<!-- generated on Wed Jan 26 09:23:49 2022 by SUMO netconvert Version 0.30.0
<?xml version="1.0" encoding="UTF-8"?>

<configuration xmlns:xsi="http://www.w3.org/2001/XMLSchema-instance" xsi:noNamespaceSchemaLocation="http://sumo.dlr.de/xsd/netconvertConfiguration.xsd">

    <input>
        <node-files value="./sumo.nod.xml"/>
        <edge-files value="./sumo.edg.xml"/>
    </input>

    <output>
        <output-file value="./sumo.net.xml"/>
    </output>

</configuration>
-->

<net version="0.27" xmlns:xsi="http://www.w3.org/2001/XMLSchema-instance" xsi:noNamespaceSchemaLocation="http://sumo.dlr.de/xsd/net_file.xsd">

    <location netOffset="1134.86,1161.82" convBoundary="0.00,0.00,2574.82,1960.89" origBoundary="-1134.86,-1161.82,1439.96,799.07" projParameter="!"/>

    <edge id=":237601033_0" function="internal">
        <lane id=":237601033_0_0" index="0" speed="13.90" length="10.50" width="4.00" shape="984.77,1816.58 974.27,1816.40"/>
    </edge>
    <edge id=":237601033_1" function="internal">
        <lane id=":237601033_1_0" index="0" speed="13.90" length="6.20" width="3.50" shape="984.77,1816.58 983.22,1816.28 982.12,1815.47 981.47,1814.18 981.27,1812.38"/>
    </edge>
    <edge id=":237601033_2" function="internal">
        <lane id=":237601033_2_0" index="0" speed="13.90" length="4.56" width="4.00" shape="975.75,1820.34 975.67,1818.62 975.39,1817.39 974.93,1816.65 974.27,1816.40"/>
    </edge>
    <edge id=":237601033_3" function="internal">
        <lane id=":237601033_3_0" index="0" speed="13.90" length="8.29" width="3.50" shape="975.75,1820.34 976.05,1817.93 976.70,1816.34 977.35,1814.75 977.67,1812.34"/>
        <lane id=":237601033_3_1" index="1" speed="13.90" length="8.29" width="3.50" shape="979.35,1820.36 979.65,1817.96 980.30,1816.37 980.95,1814.78 981.27,1812.38"/>
    </edge>
    <edge id=":237601035_0" function="internal">
        <lane id=":237601035_0_0" index="0" speed="13.90" length="6.41" width="4.00" shape="831.04,1814.95 829.30,1815.19 828.05,1815.92 827.27,1817.15 826.98,1818.88"/>
    </edge>
    <edge id=":237601035_1" function="internal">
        <lane id=":237601035_1_0" index="0" speed="13.90" length="8.00" width="4.00" shape="831.04,1814.95 823.04,1815.01"/>
    </edge>
    <edge id=":237635660_0" function="internal">
        <lane id=":237635660_0_0" index="0" speed="13.90" length="7.99" width="4.00" shape="1376.47,1222.79 1374.70,1222.40 1373.46,1221.29 1372.74,1219.46 1372.53,1216.92"/>
    </edge>
    <edge id=":237635660_1" function="internal">
        <lane id=":237635660_1_0" index="0" speed="13.90" length="5.26" width="3.50" shape="1376.47,1222.79 1375.14,1221.87 1374.70,1220.96 1375.17,1220.07 1376.53,1219.19"/>
    </edge>
    <edge id=":237635661_0" function="internal">
        <lane id=":237635661_0_0" index="0" speed="13.90" length="5.03" width="4.00" shape="1274.98,1220.98 1273.25,1221.08 1272.01,1221.47 1271.27,1222.15 1271.01,1223.10"/>
    </edge>
    <edge id=":237635661_1" function="internal">
        <lane id=":237635661_1_0" index="0" speed="13.90" length="8.00" width="3.50" shape="1274.98,1220.98 1266.98,1220.83"/>
    </edge>
    <edge id=":237635661_2" function="internal">
        <lane id=":237635661_2_0" index="0" speed="13.90" length="3.89" width="4.00" shape="1274.98,1220.98 1273.11,1220.58 1271.99,1219.47 1271.91,1219.07"/>
    </edge>
    <edge id=":237635661_3" function="internal">
        <lane id=":237635661_3_0" index="0" speed="13.90" length="2.63" width="3.50" shape="1274.98,1220.98 1273.65,1220.05 1273.21,1219.14"/>
    </edge>
    <edge id=":237635661_8" function="internal">
        <lane id=":237635661_8_0" index="0" speed="13.90" length="4.03" width="4.00" shape="1271.91,1219.07 1271.62,1217.64 1271.98,1215.10"/>
    </edge>
    <edge id=":237635661_9" function="internal">
        <lane id=":237635661_9_0" index="0" speed="13.90" length="2.63" width="3.50" shape="1273.21,1219.14 1273.68,1218.25 1275.04,1217.38"/>
    </edge>
    <edge id=":237635661_4" function="internal">
        <lane id=":237635661_4_0" index="0" speed="13.90" length="5.78" width="4.00" shape="1267.04,1217.23 1268.99,1217.13 1270.47,1216.74 1271.46,1216.06 1271.98,1215.10"/>
    </edge>
    <edge id=":237635661_5" function="internal">
        <lane id=":237635661_5_0" index="0" speed="13.90" length="8.00" width="3.50" shape="1267.04,1217.23 1275.04,1217.38"/>
    </edge>
    <edge id=":237635661_6" function="internal">
        <lane id=":237635661_6_0" index="0" speed="13.90" length="3.91" width="4.00" shape="1267.04,1217.23 1268.81,1217.63 1270.06,1218.74 1270.22,1219.14"/>
    </edge>
    <edge id=":237635661_7" function="internal">
        <lane id=":237635661_7_0" index="0" speed="13.90" length="2.63" width="3.50" shape="1267.04,1217.23 1268.38,1218.16 1268.81,1219.07"/>
    </edge>
    <edge id=":237635661_10" function="internal">
        <lane id=":237635661_10_0" index="0" speed="13.90" length="4.08" width="4.00" shape="1270.22,1219.14 1270.79,1220.56 1271.01,1223.10"/>
    </edge>
    <edge id=":237635661_11" function="internal">
        <lane id=":237635661_11_0" index="0" speed="13.90" length="2.63" width="3.50" shape="1268.81,1219.07 1268.35,1219.96 1266.98,1220.83"/>
    </edge>
    <edge id=":237635663_0" function="internal">
        <lane id=":237635663_0_0" index="0" speed="13.90" length="2.99" width="3.50" shape="998.64,1216.02 997.95,1216.14 997.45,1216.53 997.15,1217.19 997.04,1218.11"/>
    </edge>
    <edge id=":237635663_1" function="internal">
        <lane id=":237635663_1_0" index="0" speed="13.90" length="17.46" width="3.50" shape="998.64,1216.02 981.18,1215.71"/>
    </edge>
    <edge id=":237635663_2" function="internal">
        <lane id=":237635663_2_0" index="0" speed="13.90" length="10.36" width="3.50" shape="998.64,1216.02 995.56,1215.60 993.38,1214.48 992.10,1212.65 991.73,1210.11"/>
    </edge>
    <edge id=":237635663_3" function="internal">
        <lane id=":237635663_3_0" index="0" speed="13.90" length="5.37" width="3.50" shape="998.64,1216.02 997.11,1215.38 996.48,1214.56 996.76,1213.57 997.94,1212.41"/>
    </edge>
    <edge id=":237635663_4" function="internal">
        <lane id=":237635663_4_0" index="0" speed="13.90" length="3.89" width="3.50" shape="995.32,1210.21 995.47,1211.15 995.95,1211.83 996.77,1212.25 997.94,1212.41"/>
    </edge>
    <edge id=":237635663_5" function="internal">
        <lane id=":237635663_5_0" index="0" speed="13.90" length="8.16" width="3.50" shape="995.32,1210.21 994.99,1212.58 994.35,1214.15 993.73,1215.72 993.44,1218.09"/>
    </edge>
    <edge id=":237635663_6" function="internal">
        <lane id=":237635663_6_0" index="0" speed="13.90" length="4.60" width="3.50" shape="995.32,1210.21 994.38,1212.71 992.77,1213.77"/>
    </edge>
    <edge id=":237635663_7" function="internal">
        <lane id=":237635663_7_0" index="0" speed="13.90" length="2.89" width="3.50" shape="995.32,1210.21 994.39,1211.53 993.48,1211.96 993.25,1211.84"/>
    </edge>
    <edge id=":237635663_18" function="internal">
        <lane id=":237635663_18_0" index="0" speed="13.90" length="11.91" width="3.50" shape="992.77,1213.77 991.71,1214.46 987.31,1215.46 981.18,1215.71"/>
    </edge>
    <edge id=":237635663_19" function="internal">
        <lane id=":237635663_19_0" index="0" speed="13.90" length="2.37" width="3.50" shape="993.25,1211.84 992.59,1211.48 991.73,1210.11"/>
    </edge>
    <edge id=":237635663_8" function="internal">
        <lane id=":237635663_8_0" index="0" speed="13.90" length="3.80" width="3.50" shape="982.02,1212.12 983.09,1212.00 983.87,1211.59 984.35,1210.90 984.53,1209.92"/>
    </edge>
    <edge id=":237635663_9" function="internal">
        <lane id=":237635663_9_0" index="0" speed="13.90" length="15.92" width="3.50" shape="982.02,1212.12 997.94,1212.41"/>
    </edge>
    <edge id=":237635663_10" function="internal">
        <lane id=":237635663_10_0" index="0" speed="13.90" length="14.23" width="3.50" shape="982.02,1212.12 987.03,1212.57 990.61,1213.72 992.74,1215.55 993.44,1218.09"/>
    </edge>
    <edge id=":237635663_11" function="internal">
        <lane id=":237635663_11_0" index="0" speed="13.90" length="5.38" width="3.50" shape="982.02,1212.12 983.15,1213.33 983.39,1214.33 982.74,1215.13 981.18,1215.71"/>
    </edge>
    <edge id=":237635663_12" function="internal">
        <lane id=":237635663_12_0" index="0" speed="13.90" length="3.07" width="3.50" shape="982.64,1218.01 982.56,1217.02 982.29,1216.30 981.83,1215.86 981.18,1215.71"/>
    </edge>
    <edge id=":237635663_13" function="internal">
        <lane id=":237635663_13_0" index="0" speed="13.90" length="8.30" width="3.50" shape="982.64,1218.01 982.93,1215.58 983.56,1213.97 984.19,1212.35 984.53,1209.92"/>
        <lane id=":237635663_13_1" index="1" speed="13.90" length="8.30" width="3.50" shape="986.24,1218.04 986.53,1215.63 987.15,1214.03 987.79,1212.43 988.13,1210.01"/>
        <lane id=":237635663_13_2" index="2" speed="13.90" length="8.30" width="3.50" shape="989.84,1218.06 990.13,1215.67 990.75,1214.09 991.39,1212.50 991.73,1210.11"/>
    </edge>
    <edge id=":237635663_16" function="internal">
        <lane id=":237635663_16_0" index="0" speed="13.90" length="5.89" width="3.50" shape="989.84,1218.06 990.36,1215.53 991.89,1213.75 992.77,1213.38"/>
    </edge>
    <edge id=":237635663_17" function="internal">
        <lane id=":237635663_17_0" index="0" speed="13.90" length="2.89" width="3.50" shape="989.84,1218.06 990.75,1216.72 991.66,1216.28 991.89,1216.39"/>
    </edge>
    <edge id=":237635663_20" function="internal">
        <lane id=":237635663_20_0" index="0" speed="13.90" length="5.31" width="3.50" shape="992.77,1213.38 994.41,1212.71 997.94,1212.41"/>
    </edge>
    <edge id=":237635663_21" function="internal">
        <lane id=":237635663_21_0" index="0" speed="13.90" length="2.37" width="3.50" shape="991.89,1216.39 992.55,1216.73 993.44,1218.09"/>
    </edge>
    <edge id=":237639315_0" function="internal">
        <lane id=":237639315_0_0" index="0" speed="13.90" length="4.57" width="3.50" shape="995.58,1616.23 994.87,1616.46 994.37,1617.18 994.05,1618.39 993.94,1620.08"/>
    </edge>
    <edge id=":237639315_1" function="internal">
        <lane id=":237639315_1_0" index="0" speed="13.90" length="10.67" width="3.50" shape="995.58,1616.23 991.73,1615.90 988.98,1615.09 987.33,1613.79 986.79,1612.03"/>
    </edge>
    <edge id=":237639315_2" function="internal">
        <lane id=":237639315_2_0" index="0" speed="13.90" length="8.02" width="3.50" shape="993.99,1612.05 993.94,1620.08"/>
        <lane id=":237639315_2_1" index="1" speed="13.90" length="8.02" width="3.50" shape="990.39,1612.04 990.34,1620.05"/>
    </edge>
    <edge id=":237639315_4" function="internal">
        <lane id=":237639315_4_0" index="0" speed="13.90" length="2.63" width="3.50" shape="990.39,1612.04 989.48,1613.38 988.58,1613.83"/>
    </edge>
    <edge id=":237639315_10" function="internal">
        <lane id=":237639315_10_0" index="0" speed="13.90" length="2.63" width="3.50" shape="988.58,1613.83 987.68,1613.38 986.79,1612.03"/>
    </edge>
    <edge id=":237639315_5" function="internal">
        <lane id=":237639315_5_0" index="0" speed="13.90" length="5.04" width="3.50" shape="981.56,1616.41 982.27,1616.10 982.78,1615.26 983.08,1613.90 983.19,1612.02"/>
    </edge>
    <edge id=":237639315_6" function="internal">
        <lane id=":237639315_6_0" index="0" speed="13.90" length="10.58" width="3.50" shape="981.56,1616.41 985.42,1616.44 988.16,1617.05 989.80,1618.25 990.34,1620.05"/>
    </edge>
    <edge id=":237639315_7" function="internal">
        <lane id=":237639315_7_0" index="0" speed="13.90" length="7.98" width="3.50" shape="983.14,1619.98 983.19,1612.02"/>
        <lane id=":237639315_7_1" index="1" speed="13.90" length="7.98" width="3.50" shape="986.74,1620.01 986.79,1612.03"/>
    </edge>
    <edge id=":237639315_9" function="internal">
        <lane id=":237639315_9_0" index="0" speed="13.90" length="2.63" width="3.50" shape="986.74,1620.01 987.65,1618.67 988.56,1618.23"/>
    </edge>
    <edge id=":237639315_11" function="internal">
        <lane id=":237639315_11_0" index="0" speed="13.90" length="2.63" width="3.50" shape="988.56,1618.23 989.45,1618.69 990.34,1620.05"/>
    </edge>
    <edge id=":237639316_0" function="internal">
        <lane id=":237639316_0_0" index="0" speed="13.90" length="7.32" width="3.50" shape="997.94,1415.04 997.24,1415.45 996.73,1416.72 996.42,1418.85 996.31,1421.84"/>
    </edge>
    <edge id=":237639316_1" function="internal">
        <lane id=":237639316_1_0" index="0" speed="13.90" length="18.54" width="4.00" shape="997.94,1415.04 993.65,1415.29 988.74,1416.06 983.90,1417.19 979.80,1418.50"/>
    </edge>
    <edge id=":237639316_2" function="internal">
        <lane id=":237639316_2_0" index="0" speed="13.90" length="13.98" width="3.50" shape="997.94,1415.04 992.56,1414.67 988.72,1413.82 986.41,1412.47 985.65,1410.64"/>
    </edge>
    <edge id=":237639316_3" function="internal">
        <lane id=":237639316_3_0" index="0" speed="13.90" length="11.07" width="3.50" shape="996.45,1410.80 996.31,1421.84"/>
        <lane id=":237639316_3_1" index="1" speed="13.90" length="11.07" width="3.50" shape="992.85,1410.72 992.71,1421.83"/>
    </edge>
    <edge id=":237639316_5" function="internal">
        <lane id=":237639316_5_0" index="0" speed="13.90" length="4.11" width="4.00" shape="989.25,1410.65 988.65,1412.71 987.36,1414.18"/>
    </edge>
    <edge id=":237639316_6" function="internal">
        <lane id=":237639316_6_0" index="0" speed="13.90" length="2.63" width="3.50" shape="989.25,1410.65 988.34,1411.99 987.44,1412.44"/>
    </edge>
    <edge id=":237639316_14" function="internal">
        <lane id=":237639316_14_0" index="0" speed="13.90" length="8.77" width="4.00" shape="987.36,1414.18 986.88,1414.71 983.93,1416.64 979.80,1418.50"/>
    </edge>
    <edge id=":237639316_15" function="internal">
        <lane id=":237639316_15_0" index="0" speed="13.90" length="2.63" width="3.50" shape="987.44,1412.44 986.54,1411.99 985.65,1410.64"/>
    </edge>
    <edge id=":237639316_7" function="internal">
        <lane id=":237639316_7_0" index="0" speed="13.90" length="3.83" width="3.50" shape="979.50,1412.33 980.61,1412.46 981.41,1412.19 981.89,1411.53 982.05,1410.49"/>
    </edge>
    <edge id=":237639316_8" function="internal">
        <lane id=":237639316_8_0" index="0" speed="13.90" length="17.33" width="3.50" shape="979.50,1412.33 985.29,1414.17 989.42,1416.37 991.90,1418.92 992.71,1421.83"/>
    </edge>
    <edge id=":237639316_9" function="internal">
        <lane id=":237639316_9_0" index="0" speed="13.90" length="9.02" width="4.00" shape="979.50,1412.33 981.89,1413.76 982.74,1415.27 982.04,1416.85 979.80,1418.50"/>
    </edge>
    <edge id=":237639316_10" function="internal">
        <lane id=":237639316_10_0" index="0" speed="13.90" length="4.72" width="4.00" shape="981.91,1421.79 981.79,1420.04 981.39,1418.91 980.73,1418.40 979.80,1418.50"/>
    </edge>
    <edge id=":237639316_11" function="internal">
        <lane id=":237639316_11_0" index="0" speed="13.90" length="11.24" width="3.50" shape="981.91,1421.79 982.05,1410.49"/>
        <lane id=":237639316_11_1" index="1" speed="13.90" length="11.24" width="3.50" shape="985.51,1421.80 985.65,1410.64"/>
    </edge>
    <edge id=":237639316_13" function="internal">
        <lane id=":237639316_13_0" index="0" speed="13.90" length="2.63" width="3.50" shape="989.11,1421.82 990.02,1420.47 990.92,1420.02"/>
    </edge>
    <edge id=":237639316_16" function="internal">
        <lane id=":237639316_16_0" index="0" speed="13.90" length="2.63" width="3.50" shape="990.92,1420.02 991.82,1420.47 992.71,1421.83"/>
    </edge>
    <edge id=":237641342_0" function="internal">
        <lane id=":237641342_0_0" index="0" speed="13.90" length="8.00" width="4.00" shape="753.37,878.52 753.58,870.52"/>
    </edge>
    <edge id=":237641342_1" function="internal">
        <lane id=":237641342_1_0" index="0" speed="13.90" length="6.40" width="4.00" shape="753.37,878.52 753.67,876.77 754.46,875.58 755.74,874.95 757.51,874.88"/>
    </edge>
    <edge id=":237641348_0" function="internal">
        <lane id=":237641348_0_0" index="0" speed="13.90" length="8.16" width="3.50" shape="1006.33,895.91 1005.99,904.07"/>
    </edge>
    <edge id=":237641348_1" function="internal">
        <lane id=":237641348_1_0" index="0" speed="13.90" length="2.63" width="3.50" shape="1006.33,895.91 1005.39,897.24 1004.48,897.66"/>
    </edge>
    <edge id=":237641348_8" function="internal">
        <lane id=":237641348_8_0" index="0" speed="13.90" length="2.63" width="3.50" shape="1004.48,897.66 1003.59,897.19 1002.73,895.82"/>
    </edge>
    <edge id=":237641348_2" function="internal">
        <lane id=":237641348_2_0" index="0" speed="13.90" length="4.23" width="3.50" shape="993.89,899.09 994.57,898.93 995.07,898.30 995.39,897.20 995.53,895.63"/>
    </edge>
    <edge id=":237641348_3" function="internal">
        <lane id=":237641348_3_0" index="0" speed="13.90" length="13.92" width="3.50" shape="993.89,899.09 999.26,899.82 1003.07,900.89 1005.31,902.30 1005.99,904.07"/>
    </edge>
    <edge id=":237641348_4" function="internal">
        <lane id=":237641348_4_0" index="0" speed="13.90" length="7.94" width="3.50" shape="995.21,903.45 995.53,895.63"/>
        <lane id=":237641348_4_1" index="1" speed="13.90" length="7.94" width="3.50" shape="998.80,903.66 999.13,895.72"/>
        <lane id=":237641348_4_2" index="2" speed="13.90" length="7.94" width="3.50" shape="1002.39,903.86 1002.73,895.82"/>
    </edge>
    <edge id=":237641348_7" function="internal">
        <lane id=":237641348_7_0" index="0" speed="13.90" length="2.63" width="3.50" shape="1002.39,903.86 1003.37,902.56 1004.29,902.17"/>
    </edge>
    <edge id=":237641348_9" function="internal">
        <lane id=":237641348_9_0" index="0" speed="13.90" length="2.63" width="3.50" shape="1004.29,902.17 1005.17,902.67 1005.99,904.07"/>
    </edge>
    <edge id=":237642388_0" function="internal">
        <lane id=":237642388_0_0" index="0" speed="13.90" length="8.00" width="4.00" shape="1378.75,988.96 1370.75,988.82"/>
    </edge>
    <edge id=":237642388_1" function="internal">
        <lane id=":237642388_1_0" index="0" speed="13.90" length="2.11" width="4.00" shape="1378.75,988.96 1376.98,988.67 1376.71,988.50"/>
    </edge>
    <edge id=":237642388_4" function="internal">
        <lane id=":237642388_4_0" index="0" speed="13.90" length="4.42" width="4.00" shape="1376.71,988.50 1375.73,987.89 1374.99,986.61 1374.76,984.83"/>
    </edge>
    <edge id=":237642388_2" function="internal">
        <lane id=":237642388_2_0" index="0" speed="13.90" length="6.37" width="4.00" shape="1374.64,992.83 1374.42,991.10 1373.70,989.85 1372.47,989.09 1370.75,988.82"/>
    </edge>
    <edge id=":237642388_3" function="internal">
        <lane id=":237642388_3_0" index="0" speed="13.90" length="8.00" width="4.00" shape="1374.64,992.83 1374.76,984.83"/>
    </edge>
    <edge id=":237642389_0" function="internal">
        <lane id=":237642389_0_0" index="0" speed="13.90" length="6.33" width="4.00" shape="1374.42,756.13 1376.15,755.94 1377.39,755.23 1378.14,754.02 1378.40,752.30"/>
    </edge>
    <edge id=":237642389_1" function="internal">
        <lane id=":237642389_1_0" index="0" speed="13.90" length="8.00" width="4.00" shape="1374.42,756.13 1382.42,756.32"/>
    </edge>
    <edge id=":237642389_2" function="internal">
        <lane id=":237642389_2_0" index="0" speed="13.90" length="8.00" width="4.00" shape="1378.30,760.30 1378.40,752.30"/>
    </edge>
    <edge id=":237642389_3" function="internal">
        <lane id=":237642389_3_0" index="0" speed="13.90" length="2.14" width="4.00" shape="1378.30,760.30 1378.58,758.53 1378.77,758.24"/>
    </edge>
    <edge id=":237642389_4" function="internal">
        <lane id=":237642389_4_0" index="0" speed="13.90" length="4.39" width="4.00" shape="1378.77,758.24 1379.36,757.28 1380.64,756.54 1382.42,756.32"/>
    </edge>
    <edge id=":237642390_0" function="internal">
        <lane id=":237642390_0_0" index="0" speed="13.90" length="8.00" width="4.00" shape="1385.14,525.84 1377.14,525.70"/>
    </edge>
    <edge id=":237642390_1" function="internal">
        <lane id=":237642390_1_0" index="0" speed="13.90" length="2.10" width="4.00" shape="1385.14,525.84 1383.37,525.55 1383.11,525.38"/>
    </edge>
    <edge id=":237642390_4" function="internal">
        <lane id=":237642390_4_0" index="0" speed="13.90" length="4.43" width="4.00" shape="1383.11,525.38 1382.12,524.76 1381.39,523.48 1381.18,521.70"/>
    </edge>
    <edge id=":237642390_2" function="internal">
        <lane id=":237642390_2_0" index="0" speed="13.90" length="6.37" width="4.00" shape="1381.03,529.70 1380.81,527.97 1380.09,526.73 1378.87,525.97 1377.14,525.70"/>
    </edge>
    <edge id=":237642390_3" function="internal">
        <lane id=":237642390_3_0" index="0" speed="13.90" length="8.00" width="4.00" shape="1381.03,529.70 1381.18,521.70"/>
    </edge>
    <edge id=":237645749_0" function="internal">
        <lane id=":237645749_0_0" index="0" speed="13.90" length="4.76" width="3.50" shape="1020.18,518.60 1019.42,518.84 1018.87,519.57 1018.51,520.82 1018.35,522.56"/>
    </edge>
    <edge id=":237645749_1" function="internal">
        <lane id=":237645749_1_0" index="0" speed="13.90" length="14.01" width="4.00" shape="1020.18,518.60 1006.17,518.33"/>
    </edge>
    <edge id=":237645749_2" function="internal">
        <lane id=":237645749_2_0" index="0" speed="13.90" length="9.14" width="3.50" shape="1020.18,518.60 1016.29,518.27 1013.53,517.45 1011.89,516.14 1011.38,514.36"/>
        <lane id=":237645749_2_1" index="1" speed="13.90" length="9.14" width="3.50" shape="1020.18,518.60 1017.86,518.30 1016.23,517.51 1015.27,516.22 1014.98,514.45"/>
    </edge>
    <edge id=":237645749_4" function="internal">
        <lane id=":237645749_4_0" index="0" speed="13.90" length="8.03" width="3.50" shape="1018.58,514.54 1018.35,522.56"/>
    </edge>
    <edge id=":237645749_5" function="internal">
        <lane id=":237645749_5_0" index="0" speed="13.90" length="3.16" width="4.00" shape="1018.58,514.54 1017.76,516.28 1016.66,516.85"/>
    </edge>
    <edge id=":237645749_6" function="internal">
        <lane id=":237645749_6_0" index="0" speed="13.90" length="2.63" width="3.50" shape="1018.58,514.54 1017.64,515.87 1016.73,516.29"/>
    </edge>
    <edge id=":237645749_12" function="internal">
        <lane id=":237645749_12_0" index="0" speed="13.90" length="10.71" width="4.00" shape="1016.66,516.85 1015.42,517.49 1011.56,518.18 1006.17,518.33"/>
    </edge>
    <edge id=":237645749_13" function="internal">
        <lane id=":237645749_13_0" index="0" speed="13.90" length="2.63" width="3.50" shape="1016.73,516.29 1015.84,515.82 1014.98,514.45"/>
    </edge>
    <edge id=":237645749_7" function="internal">
        <lane id=":237645749_7_0" index="0" speed="13.90" length="4.50" width="4.00" shape="1007.56,522.24 1007.52,520.54 1007.27,519.32 1006.82,518.59 1006.17,518.33"/>
    </edge>
    <edge id=":237645749_8" function="internal">
        <lane id=":237645749_8_0" index="0" speed="13.90" length="7.99" width="3.50" shape="1007.56,522.24 1007.78,514.27"/>
        <lane id=":237645749_8_1" index="1" speed="13.90" length="7.99" width="3.50" shape="1011.16,522.34 1011.38,514.36"/>
        <lane id=":237645749_8_2" index="2" speed="13.90" length="7.99" width="3.50" shape="1014.76,522.45 1014.98,514.45"/>
    </edge>
    <edge id=":237645749_11" function="internal">
        <lane id=":237645749_11_0" index="0" speed="13.90" length="2.63" width="3.50" shape="1014.76,522.45 1015.70,521.13 1016.61,520.71"/>
    </edge>
    <edge id=":237645749_14" function="internal">
        <lane id=":237645749_14_0" index="0" speed="13.90" length="2.63" width="3.50" shape="1016.61,520.71 1017.50,521.19 1018.35,522.56"/>
    </edge>
    <edge id=":237645754_0" function="internal">
        <lane id=":237645754_0_0" index="0" speed="13.90" length="8.00" width="4.00" shape="766.84,514.25 758.84,514.12"/>
    </edge>
    <edge id=":237645754_1" function="internal">
        <lane id=":237645754_1_0" index="0" speed="13.90" length="2.11" width="4.00" shape="766.84,514.25 765.07,513.96 764.80,513.79"/>
    </edge>
    <edge id=":237645754_4" function="internal">
        <lane id=":237645754_4_0" index="0" speed="13.90" length="4.41" width="4.00" shape="764.80,513.79 763.83,513.18 763.10,511.90 762.90,510.13"/>
    </edge>
    <edge id=":237645754_2" function="internal">
        <lane id=":237645754_2_0" index="0" speed="13.90" length="6.35" width="4.00" shape="762.69,518.12 762.49,516.39 761.78,515.15 760.56,514.39 758.84,514.12"/>
    </edge>
    <edge id=":237645754_3" function="internal">
        <lane id=":237645754_3_0" index="0" speed="13.90" length="8.00" width="4.00" shape="762.69,518.12 762.90,510.13"/>
    </edge>
    <edge id=":237647478_0" function="internal">
        <lane id=":237647478_0_0" index="0" speed="13.90" length="8.03" width="3.50" shape="998.87,1097.54 998.62,1105.57"/>
    </edge>
    <edge id=":237647478_1" function="internal">
        <lane id=":237647478_1_0" index="0" speed="13.90" length="2.63" width="3.50" shape="998.87,1097.54 997.93,1098.86 997.02,1099.29"/>
    </edge>
    <edge id=":237647478_8" function="internal">
        <lane id=":237647478_8_0" index="0" speed="13.90" length="2.63" width="3.50" shape="997.02,1099.29 996.13,1098.81 995.27,1097.44"/>
    </edge>
    <edge id=":237647478_2" function="internal">
        <lane id=":237647478_2_0" index="0" speed="13.90" length="4.51" width="3.50" shape="986.45,1101.07 987.12,1100.85 987.61,1100.14 987.93,1098.94 988.07,1097.24"/>
    </edge>
    <edge id=":237647478_3" function="internal">
        <lane id=":237647478_3_0" index="0" speed="13.90" length="13.88" width="3.50" shape="986.45,1101.07 991.83,1101.53 995.65,1102.43 997.91,1103.78 998.62,1105.57"/>
    </edge>
    <edge id=":237647478_4" function="internal">
        <lane id=":237647478_4_0" index="0" speed="13.90" length="7.99" width="3.50" shape="987.83,1105.20 988.07,1097.24"/>
        <lane id=":237647478_4_1" index="1" speed="13.90" length="7.99" width="3.50" shape="991.42,1105.32 991.67,1097.34"/>
        <lane id=":237647478_4_2" index="2" speed="13.90" length="7.99" width="3.50" shape="995.02,1105.45 995.27,1097.44"/>
    </edge>
    <edge id=":237647478_7" function="internal">
        <lane id=":237647478_7_0" index="0" speed="13.90" length="2.63" width="3.50" shape="995.02,1105.45 995.97,1104.13 996.88,1103.71"/>
    </edge>
    <edge id=":237647478_9" function="internal">
        <lane id=":237647478_9_0" index="0" speed="13.90" length="2.63" width="3.50" shape="996.88,1103.71 997.77,1104.19 998.62,1105.57"/>
    </edge>
    <edge id=":237647488_0" function="internal">
        <lane id=":237647488_0_0" index="0" speed="13.90" length="4.80" width="3.50" shape="1003.83,983.02 1003.06,983.26 1002.49,984.01 1002.13,985.25 1001.97,987.01"/>
    </edge>
    <edge id=":237647488_1" function="internal">
        <lane id=":237647488_1_0" index="0" speed="13.90" length="14.10" width="4.00" shape="1003.83,983.02 1000.22,982.88 996.79,982.56 993.39,982.06 989.85,981.34"/>
    </edge>
    <edge id=":237647488_2" function="internal">
        <lane id=":237647488_2_0" index="0" speed="13.90" length="9.11" width="3.50" shape="1003.83,983.02 999.93,982.70 997.17,981.89 995.56,980.58 995.09,978.77"/>
        <lane id=":237647488_2_1" index="1" speed="13.90" length="9.11" width="3.50" shape="1003.83,983.02 1001.50,982.74 999.87,981.96 998.93,980.70 998.68,978.95"/>
    </edge>
    <edge id=":237647488_4" function="internal">
        <lane id=":237647488_4_0" index="0" speed="13.90" length="7.88" width="3.50" shape="1002.28,979.13 1001.97,987.01"/>
    </edge>
    <edge id=":237647488_5" function="internal">
        <lane id=":237647488_5_0" index="0" speed="13.90" length="3.35" width="4.00" shape="1002.28,979.13 1001.41,981.12 1000.33,981.60"/>
    </edge>
    <edge id=":237647488_6" function="internal">
        <lane id=":237647488_6_0" index="0" speed="13.90" length="2.63" width="3.50" shape="1002.28,979.13 1001.31,980.43 1000.39,980.84"/>
    </edge>
    <edge id=":237647488_12" function="internal">
        <lane id=":237647488_12_0" index="0" speed="13.90" length="10.67" width="4.00" shape="1000.33,981.60 999.05,982.16 995.20,982.23 989.85,981.34"/>
    </edge>
    <edge id=":237647488_13" function="internal">
        <lane id=":237647488_13_0" index="0" speed="13.90" length="2.63" width="3.50" shape="1000.39,980.84 999.51,980.34 998.68,978.95"/>
    </edge>
    <edge id=":237647488_7" function="internal">
        <lane id=":237647488_7_0" index="0" speed="13.90" length="5.79" width="4.00" shape="991.17,986.70 991.14,984.48 990.91,982.85 990.48,981.80 989.85,981.34"/>
    </edge>
    <edge id=":237647488_8" function="internal">
        <lane id=":237647488_8_0" index="0" speed="13.90" length="8.04" width="3.50" shape="991.17,986.70 991.49,978.59"/>
        <lane id=":237647488_8_1" index="1" speed="13.90" length="8.04" width="3.50" shape="994.77,986.81 995.09,978.77"/>
        <lane id=":237647488_8_2" index="2" speed="13.90" length="8.04" width="3.50" shape="998.37,986.91 998.68,978.95"/>
    </edge>
    <edge id=":237647488_11" function="internal">
        <lane id=":237647488_11_0" index="0" speed="13.90" length="2.63" width="3.50" shape="998.37,986.91 999.31,985.58 1000.22,985.16"/>
    </edge>
    <edge id=":237647488_14" function="internal">
        <lane id=":237647488_14_0" index="0" speed="13.90" length="2.63" width="3.50" shape="1000.22,985.16 1001.11,985.63 1001.97,987.01"/>
    </edge>
    <edge id=":237647491_0" function="internal">