<?xml version="1.0" encoding="UTF-8"?>

<!-- generated on 2021-06-08 12:09:55 by Eclipse SUMO duarouter Version 1.9.2
<configuration xmlns:xsi="http://www.w3.org/2001/XMLSchema-instance" xsi:noNamespaceSchemaLocation="http://sumo.dlr.de/xsd/duarouterConfiguration.xsd">

    <input>
        <net-file value="sumo.net.xml"/>
        <route-files value="sumo.trip.xml"/>
    </input>

    <output>
        <output-file value="sumo.rou.xml"/>
        <alternatives-output value="sumo.rou.alt.xml"/>
    </output>

    <report>
        <ignore-errors value="true"/>
    </report>

</configuration>
-->

<routes xmlns:xsi="http://www.w3.org/2001/XMLSchema-instance" xsi:noNamespaceSchemaLocation="http://sumo.dlr.de/xsd/routes_file.xsd">
    <vehicle id="0" depart="0.00">
        <route edges="719395506_9 719395506_5 719395506_11 719395506_10 719395506_8 719395506_7 719395506_3 719395506_4 50575480_1 50575480_2 330310753_1 59432574 589533496 397303085 397303084_1 -397303084_1 -397303085"/>
    </vehicle>
    <vehicle id="1" depart="1.00">
        <route edges="44465157 747414953 8797231 752009525 589533490 719026486 708578563 589533498 468422742 590645027 468421273 468421268 -589533496 -8796601 45270121_2 45270121_5 45270121_3 330310753_1 330310753_2"/>
    </vehicle>
    <vehicle id="2" depart="2.00">
        <route edges="778910125 8797130_4 8797130_5 719395506_5 719395506_11 8795651_4 621527175_9 8797131_1 8797131_2 8797131_6 8797131_5 8797131_10 8797131_9 8797131_3 8797131_4 747449010_1"/>
    </vehicle>
    <vehicle id="3" depart="3.00">
        <route edges="8797090_1 8797090_2 8797090_3 8797090_4 719395506_11 719395506_10 719395506_8 719395506_7 719395506_3 719395506_4 50575480_1 50575480_2 -8795503_3 -8795503_5"/>
    </vehicle>
    <vehicle id="4" depart="4.00">
        <route edges="50575480_2 330310753_1 59432574 589533496 397303085 397303084_1 397303084_2 397303086 -397303086"/>
    </vehicle>
    <vehicle id="13" depart="13.00">
        <route edges="-8796076_2 8796076_2 8796076_3 -8796076_3"/>
    </vehicle>
    <vehicle id="14" depart="14.00">
        <route edges="8796353_2 8796353_6 8796353_7 8796353_5 8796353_4 156723058 719395506_3 719395506_4 50575480_1 50575480_2 330310753_1 330310753_2 330310713_1 330310713_3 330310713_2 484878996_1 484878996_2 8797259_1 8797259_5 8797259_6 8797259_4 8797259_7 8797259_3 8797259_2 631833935_1 631833935_2"/>
    </vehicle>
    <vehicle id="17" depart="17.00">
        <route edges="484878996_5 -484878996_5 -484878996_2 -484878996_1 -8796216_2 -8796216_1 -397303084_2 -397303084_1 -397303085 -589533496 -8796601 45270121_2 45270121_5 45270121_3 330310753_1 59432574"/>
    </vehicle>
    <vehicle id="18" depart="18.00">
        <route edges="8795651_4 621527175_9 621527175_2 621527175_3 621527175_8 621527175_10 621527175_11 719026490_1 719026490_2"/>
    </vehicle>
    <vehicle id="19" depart="19.00">
        <route edges="8796353_7 8796353_5 8796353_4 8796353_3 8796353_8 8795651_2 8795651_3 8795651_4 621527175_9 621527175_2"/>
    </vehicle>
    <vehicle id="21" depart="21.00">
        <route edges="361085970 361085968_2 -190641518_1 719026490_1 565167440 564768404_2 719395506_1 719395506_9 719395506_5 719395506_11 719395506_10 719395506_8 719395506_7 719395506_3 719395506_4 50575480_1 50575480_2 -45270121_3 45270121_3"/>
    </vehicle>
    <vehicle id="24" depart="24.00">
        <route edges="719395506_8 719395506_7 719395506_3 719395506_4 50575480_1 50575480_2 330310753_1 330310753_2 330310713_1 330310713_3 330310713_2 484878996_1 484878996_2"/>
    </vehicle>
    <vehicle id="25" depart="25.00">
        <route edges="484878996_2 -484878996_2 -484878996_1 -330310713_2 -330310713_3 -330310713_1 330310713_1"/>
    </vehicle>
    <vehicle id="26" depart="26.00">
        <route edges="397353597 50572945 125568089_1 125568089_2 590571542_1 590571542_2 190641517 719395507 469146402 469146400 589533491 752702309 125568090 777809608 -589533495_2 -589533495_1 -50568411_2 -50568411_1 -397303083 -397303086 8796216_1 8796216_2 484878996_1 484878996_2 8797259_1"/>
    </vehicle>
    <vehicle id="28" depart="28.00">
        <route edges="206657080 435978968 719395506_7 719395506_3 719395506_4 50575480_1 50575480_2 330310753_1 59432574 374711603 913105421 777809605_1 777809605_2 468422740 686997726 469146400 589533491 752702309 125568090 777809608"/>
    </vehicle>
    <vehicle id="29" depart="29.00">
        <route edges="190641517 719395507 469146402 469146400 589533491 752702309 125568090 777809608 -589533495_2 -589533495_1 -50568411_2 -50568411_1 -397303083 -397303086 8796216_1 8796216_2 484878996_1 484878996_2 484878996_5 484878996_3 484878996_4 8797554_1 45330151_1 491852320"/>
    </vehicle>
    <vehicle id="35" depart="35.00">
        <route edges="330310713_2 484878996_1 484878996_2 8797259_1 8797259_5 8797259_6 8797259_4 8797259_7 8797259_3"/>
    </vehicle>
    <vehicle id="40" depart="40.00">
        <route edges="621527175_10 621527175_11 719026490_1 565167440 564768404_2 719395506_1 719395506_9 719395506_5 719395506_11 719395506_10 719395506_8 719395506_7 719395506_3 719395506_4 50575480_1 50575480_2 330310753_1 59432574 589533496 397303085"/>
    </vehicle>
    <vehicle id="42" depart="42.00">
        <route edges="50568411_1 -50568411_1 -397303083 -397303086 -397303084_2 -397303084_1 -397303085 -589533496 -8796601 45270121_2 45270121_5 45270121_3 330310753_1"/>
    </vehicle>
    <vehicle id="43" depart="43.00">
        <route edges="913105421 777809605_1 777809605_2 468422740 686997726 469146400 589533491 752702309 125568090 777809608 -589533495_2 -589533495_1 44465157 747414953 8797231 752009525 589533490"/>
    </vehicle>
    <vehicle id="44" depart="44.00">
        <route edges="-8796076_2 -8796076_1 330310713_2 484878996_1 -484878996_1"/>
    </vehicle>
    <vehicle id="45" depart="45.00">
        <route edges="-8796353_5 8796353_5 8796353_4 8796353_3 8796353_8 8795651_2 8795651_3 8795651_4 621527175_9 621527175_2 621527175_3 621527175_8 621527175_10 565167469_1 565167469_2 719395505_3"/>
    </vehicle>
    <vehicle id="47" depart="47.00">
        <route edges="-50568411_1 -397303083 -397303086 8796216_1 8796216_2 484878996_1 484878996_2 484878996_5 484878996_3 484878996_4 8797554_1 45330151_1 491852320"/>
    </vehicle>
    <vehicle id="48" depart="48.00">
        <route edges="8797819_3 8797399_2 8797399_3 -589533495_2 -589533495_1 -50568411_2 -50568411_1 -397303083 -397303086 -397303084_2 -397303084_1 -397303085 -589533496 589533496"/>
    </vehicle>
    <vehicle id="54" depart="54.00">
        <route edges="565167452 -8797554_4 -8797554_2 -8797554_1 -484878996_4 -484878996_3 -484878996_5 8797259_1 8797259_5 8797259_6"/>
    </vehicle>
    <vehicle id="60" depart="60.00">
        <route edges="780276539 469146407_3 590571550 484879000 125568089_2 590571542_1 590571542_2"/>
    </vehicle>
    <vehicle id="62" depart="62.00">
        <route edges="-156723058 156723058 719395506_3 719395506_4 50575480_1 50575480_2 330310753_1 59432574 374711603 913105421 777809605_1 777809605_2 468422740 686997726 468422741 468421253 468421254 468421252 8797819_1 468421256_1 468421256_2"/>
    </vehicle>
    <vehicle id="63" depart="63.00">
        <route edges="-397303083 -397303086 8796216_1 8796216_2 -330310713_2 8796076_1 8796076_2 8796076_3 8797131_10 8797131_9"/>
    </vehicle>
    <vehicle id="64" depart="64.00">
        <route edges="8796806_1 8796806_5 8796806_4 8796806_3 8795651_1 -8796353_8 -8796353_3 -8796353_4 -8796353_5 -8796353_7 -8796353_6 -8796353_2 8796353_2"/>
    </vehicle>
    <vehicle id="65" depart="65.00">
        <route edges="468421252 8797819_1 468421256_1 468421256_2 468421255 589533491 752702309 125568090 777809608 -589533495_2 -589533495_1 -50568411_2 -50568411_1 -397303083 -397303086 8796216_1 8796216_2 484878996_1 484878996_2 484878996_5 484878996_3 484878996_4 -484878996_4"/>
    </vehicle>
    <vehicle id="66" depart="66.00">
        <route edges="8796806_1 8796806_5 8796806_4 8796806_3 8795651_1 8795651_2 8795651_3 8795651_4 621527175_9 8797131_1 8797131_2 8797131_6 8797131_5 8797131_10 8797131_9 -484878996_4 -484878996_3 -484878996_5 8797259_1 8797259_5 8797259_6 8797259_4"/>
    </vehicle>
    <vehicle id="69" depart="69.00">
        <route edges="780276540 469146407_2 469146407_3 590571550 484879000 125568089_2 590571542_1 590571542_2 190641517 719395507 469146402 469146400 589533491 752702309 125568090 777809608 -589533495_2 -589533495_1 -50568411_2 -50568411_1 -397303083 -397303086 -397303084_2 -397303084_1 -397303085 -589533496 -8796601"/>
    </vehicle>
    <vehicle id="70" depart="70.00">
        <route edges="565167470_2 621527175_10 621527175_11 719026490_1 565167440 564768404_2 719395506_1 719395506_9 719395506_5 719395506_11 719395506_10 719395506_8 719395506_7 719395506_3 719395506_4 50575480_1 50575480_2 330310753_1 59432574 589533496 397303085 397303084_1 397303084_2 397303086 397303083 50568411_1 50568411_2 589533495_1 589533495_2 590831806"/>
    </vehicle>
    <vehicle id="72" depart="72.00">
        <route edges="564768404_1 564768404_2 719395506_1 719395506_9 719395506_5 719395506_11 719395506_10 719395506_8 719395506_7 719395506_3 719395506_4 50575480_1 50575480_2 330310753_1 330310753_2 330310713_1 330310713_3 330310713_2"/>
    </vehicle>
    <vehicle id="73" depart="73.00">
        <route edges="590571542_1 590571542_2 190641517 719395507 469146402 469146400 589533491 752702309 125568090 777809608"/>
    </vehicle>
    <vehicle id="74" depart="74.00">
        <route edges="302958496 621527175_4 621527175_6 565167464 -8796076_1 330310713_2 -8796216_2 -8796216_1 -397303084_2 -397303084_1 -397303085 -589533496 374711603 913105421 777809605_1 777809605_2 468422740 686997726 468422741 468421253"/>
    </vehicle>
    <vehicle id="79" depart="79.00">
        <route edges="361085970 361085968_2 -190641518_1 719026490_1 565167440 564768404_2 719395506_1 719395506_9 719395506_5 719395506_11 719395506_10 719395506_8 719395506_7 719395506_3 719395506_4 50575480_1 50575480_2 330310753_1 330310753_2"/>
    </vehicle>
    <vehicle id="81" depart="81.00">
        <route edges="361085970 361085968_2 -190641518_1 719026490_1 565167440 564768404_2 719395506_1 719395506_9 719395506_5 719395506_11 8795651_4 621527175_9 8797131_1 8797131_2"/>
    </vehicle>
    <vehicle id="82" depart="82.00">
        <route edges="8796353_6 8796353_7 8796353_5 8796353_4 156723058 719395506_3 719395506_4 50575480_1 50575480_2 330310753_1 59432574 589533496 397303085 397303084_1 397303084_2 397303086 397303083 50568411_1 50568411_2 589533495_1 -589533495_1"/>
    </vehicle>
    <vehicle id="84" depart="84.00">
        <route edges="330310713_3 330310713_2 484878996_1 484878996_2 484878996_5 484878996_3 484878996_4 8797554_1 8797554_2 -8797554_2"/>
    </vehicle>
    <vehicle id="89" depart="89.00">
        <route edges="564768404_1 564768404_2 719395506_1 565167467"/>
    </vehicle>
    <vehicle id="90" depart="90.00">
        <route edges="778884312 -8796076_2 -8796076_1 330310713_2 -8796216_2 -8796216_1 397303086 397303083 50568411_1 50568411_2 44465157 747414953"/>
    </vehicle>
    <vehicle id="91" depart="91.00">
        <route edges="8797554_3 -8797554_3 -8797554_4 -8797554_2 -8797554_1 -484878996_4 -484878996_3 -484878996_5 -484878996_2 -484878996_1 -8796216_2 -8796216_1"/>
    </vehicle>
    <vehicle id="92" depart="92.00">
        <route edges="50572941 8796570_2 125568089_1 125568089_2 590571542_1 590571542_2 190641517 719395507 469146402 469146400 589533491 752702309 125568090 777809608 -589533495_2 -589533495_1 -50568411_2 -50568411_1 -397303083 468421275"/>
    </vehicle>
    <vehicle id="94" depart="94.00">
        <route edges="28317285_2 28317285_3 719395506_1 719395506_9 719395506_5 719395506_11 8795651_4 621527175_9 8797131_1 8797131_2 8797131_6 8797131_5 8797131_10 8797131_9 -484878996_4 565167447"/>
    </vehicle>
    <vehicle id="95" depart="95.00">
        <route edges="50575480_2 330310753_1 59432574 589533496 397303085 397303084_1 397303084_2 397303086 397303083 50568411_1 50568411_2 44465157"/>
    </vehicle>
    <vehicle id="97" depart="97.00">
        <route edges="565167440 564768404_2 719395506_1 719395506_9 719395506_5 719395506_11 719395506_10 719395506_8 719395506_7 719395506_3 719395506_4 50575480_1 50575480_2 330310753_1 330310753_2 330310713_1 330310713_3 330310713_2 -8796216_2 8796602_1"/>
    </vehicle>
    <vehicle id="98" depart="98.00">
        <route edges="59432574 589533496 38015401 628473035 330310713_1 330310713_3 330310713_2 484878996_1 484878996_2 -484878996_2"/>
    </vehicle>
    <vehicle id="100" depart="100.00">
        <route edges="8797399_3 -589533495_2 -589533495_1 -50568411_2 -50568411_1 -397303083 -397303086 8796216_1 8796216_2 484878996_1 484878996_2 484878996_5 484878996_3 484878996_4 8797131_3 8797131_4 8797131_7 8797131_8"/>
    </vehicle>
    <vehicle id="102" depart="102.00">
        <route edges="565167472_2 778910124 28317285_3 719395506_1 719395506_9 719395506_5 719395506_11 719395506_10 719395506_8 719395506_7 719395506_3 719395506_4 50575480_1 50575480_2 330310753_1 330310753_2 330310713_1 330310713_3 330310713_2"/>
    </vehicle>
    <vehicle id="103" depart="103.00">
        <route edges="50568411_2 -50568411_2 -50568411_1 -397303083 -397303086 8796216_1 8796216_2 484878996_1 484878996_2 484878996_5 -484878996_5"/>
    </vehicle>
    <vehicle id="104" depart="104.00">
        <route edges="484878996_5 484878996_3 484878996_4 8797554_1 8797554_2 8797554_4"/>
    </vehicle>
    <vehicle id="114" depart="114.00">
        <route edges="180897814 8797819_3 8797399_2 8797399_3"/>
    </vehicle>
    <vehicle id="116" depart="116.00">
        <route edges="708578563 589533498 468422742 590645027 468421273 468421268 397303085 397303084_1 397303084_2 397303086 397303083 50568411_1 50568411_2 44465157 747414953"/>
    </vehicle>
    <vehicle id="117" depart="117.00">
        <route edges="361085972 361085971_1 361085970 361085968_2 -190641518_1 719026490_1 565167440 564768404_2 719395506_1 719395506_9 719395506_5 719395506_11 719395506_10 719395506_8 719395506_7 -156723058 -8796353_4 -8796353_5 -8796353_7"/>
    </vehicle>
    <vehicle id="121" depart="121.00">
        <route edges="589533494 589533493 589533492 125568090 777809608 -589533495_2 -589533495_1 44465157 747414953 8797231"/>
    </vehicle>
    <vehicle id="123" depart="123.00">
        <route edges="374711603 913105421 777809605_1 777809605_2 468422740 686997726 469146400 589533491 752702309 125568090 777809608 -589533495_2 -589533495_1 -50568411_2 50568357"/>
    </vehicle>
    <vehicle id="127" depart="127.00">
        <route edges="913105421 777809605_1 777809605_2 468422740 686997726 468422741 468421253 468421254 468421252 8797819_1 8797819_2 8797819_3"/>
    </vehicle>
    <vehicle id="128" depart="128.00">
        <route edges="-589533495_2 -589533495_1 -50568411_2 -50568411_1 -397303083 -397303086 8796216_1 8796216_2 -330310713_2 330310713_2"/>
    </vehicle>
    <vehicle id="129" depart="129.00">
        <route edges="397303086 397303083 50568411_1 50568411_2 44465157 747414953 8797231"/>
    </vehicle>
    <vehicle id="131" depart="131.00">
        <route edges="484878996_2 -484878996_2 -484878996_1 -8796216_2 -8796216_1 397303086 397303083 50568411_1 50568411_2 44465157 747414953 8797231 752009525 589533494 589533493 589533492 125568090"/>
    </vehicle>
    <vehicle id="133" depart="133.00">
        <route edges="719395505_3 719026490_1 565167440 564768404_2 719395506_1 719395506_9 719395506_5 719395506_11 8795651_4 621527175_9 8797131_1 8797131_2 8797131_6 8797131_5 8797131_10 8797131_9 8797554_1 8797554_2 8797554_4"/>
    </vehicle>
    <vehicle id="138" depart="138.00">
        <route edges="-8796353_4 8796353_4 156723058 719395506_3 719395506_4 50575480_1 50575480_2 330310753_1 59432574"/>
    </vehicle>
    <vehicle id="139" depart="139.00">
        <route edges="435978968 719395506_7 719395506_3 719395506_4 50575480_1 50575480_2 330310753_1 330310753_2 330310713_1 330310713_3 330310713_2 484878996_1 484878996_2 8797259_1 8797259_5 8797259_6 8797259_4 8797259_7 8797259_3 8797259_2 631833935_1 631833935_2"/>
    </vehicle>
    <vehicle id="141" depart="141.00">
        <route edges="719395506_7 719395506_3 719395506_4 50575480_1 50575480_2 330310753_1 59432574 589533496 397303085 397303084_1 397303084_2 397303086"/>
    </vehicle>
    <vehicle id="142" depart="142.00">
        <route edges="565167473 565167472_2 778910124 28317285_3 719395506_1 719395506_9 719395506_5 719395506_11 8795651_4 621527175_9 8797131_1 8797131_2"/>
    </vehicle>
    <vehicle id="143" depart="143.00">
        <route edges="8796353_2 8796353_6 8796353_7 8796353_5 8796353_4 8796353_3 8796353_8 8795651_2 8795651_3 8795651_4 621527175_9 8797131_1 8797131_2 8797131_6 8797131_5 -8796076_3 -8796076_2"/>
    </vehicle>
    <vehicle id="144" depart="144.00">
        <route edges="564768404_1 564768404_2 719395506_1 719395506_9 719395506_5 719395506_11 719395506_10 719395506_8 719395506_7 719395506_3 206657080 435978970"/>
    </vehicle>
    <vehicle id="146" depart="146.00">
        <route edges="719395506_8 719395506_7 719395506_3 719395506_4 50575480_1 50575480_2 330310753_1 59432574 589533496 397303085"/>
    </vehicle>
    <vehicle id="147" depart="147.00">
        <route edges="778910143 8797090_2 8797090_3 8797090_4 719395506_11 719395506_10 719395506_8 719395506_7 719395506_3 719395506_4 50575480_1 50575480_2 330310753_1 59432574"/>
    </vehicle>
    <vehicle id="148" depart="148.00">
        <route edges="564768404_2 719395506_1 719395506_9 719395506_5 719395506_11 719395506_10 719395506_8 719395506_7 719395506_3 719395506_4 50575480_1 50575480_2 330310753_1 330310753_2 330310713_1 330310713_3 330310713_2 -330310713_2"/>
    </vehicle>
    <vehicle id="150" depart="150.00">
        <route edges="8797130_3 8797130_4 8797130_5 719395506_5 719395506_11 719395506_10 719395506_8 719395506_7 719395506_3 719395506_4 50575480_1 50575480_2 330310753_1 59432574 589533496 397303085 397303084_1 397303084_2 397303086 397303083 50568411_1 50568411_2 44465157 747414953 8797231 752009525 589533490 719026486 708578563 589533498 468422742 590645027"/>
    </vehicle>
    <vehicle id="152" depart="152.00">
        <route edges="125568089_2 590571542_1 590571542_2 190641517 719395507 469146402 469146400 589533491 752702309 125568090 777809608 -589533495_2 -589533495_1 -50568411_2 -50568411_1 -397303083 -397303086 -397303084_2 -397303084_1 -397303085 -589533496 -8796601"/>
    </vehicle>
    <vehicle id="155" depart="155.00">
        <route edges="8797090_3 8797090_4 719395506_11 719395506_10 719395506_8 719395506_7 719395506_3 719395506_4 50575480_1 50575480_2 330310753_1 330310753_2 330310713_1"/>
    </vehicle>
    <vehicle id="159" depart="159.00">
        <route edges="180897814 8797819_3 8797399_2 8797399_3 -589533495_2 -589533495_1 -50568411_2 -50568411_1 -397303083 -397303086 8796216_1 8796216_2 484878996_1 484878996_2 8797259_1 8797259_5 8797259_6 8797259_4 8797259_7 8797259_3 8797176"/>
    </vehicle>
    <vehicle id="160" depart="160.00">
        <route edges="8796353_8 8795651_2 8795651_3 8795651_4 621527175_9 8797131_1 8797131_2 8797131_6 8797131_5 8797131_10 8797131_9 8797554_1"/>
    </vehicle>
    <vehicle id="162" depart="162.00">
        <route edges="-397303084_2 397303084_2 8796216_1 8796216_2 484878996_1 778884298"/>
    </vehicle>
    <vehicle id="163" depart="163.00">
        <route edges="468421268 38015401 628473035 330310713_1 330310713_3 330310713_2 484878996_1 484878996_2 8797259_1 8797259_5 8797259_6 8797259_4 8797259_7 8797259_3 8797176"/>
    </vehicle>
    <vehicle id="167" depart="167.00">
        <route edges="8796601"/>
    </vehicle>
    <vehicle id="168" depart="168.00">
        <route edges="361085968_1 361085968_2 -190641518_1 719026490_1 565167440 564768404_2 719395506_1 719395506_9 719395506_5 719395506_11 8795651_4 621527175_9 8797131_1 8797131_2 8797131_6 8797131_5 -8796076_3 -8796076_2 8796076_2"/>
    </vehicle>
    <vehicle id="169" depart="169.00">
        <route edges="565167457 8797131_6 8797131_5 8797131_10 8797131_9 8797554_1 45330151_1"/>
    </vehicle>
    <vehicle id="172" depart="172.00">
        <route edges="468421267 468421266 330310753_2 330310713_1 330310713_3 330310713_2 -8796216_2 8796602_1 8796602_2"/>
    </vehicle>
    <vehicle id="173" depart="173.00">
        <route edges="8797399_2 8797399_3 -589533495_2 -589533495_1 44465157"/>
    </vehicle>
    <vehicle id="174" depart="174.00">
        <route edges="719395507 469146402 469146400 589533491 752702309 125568090 777809608 -589533495_2 -589533495_1 -50568411_2 -50568411_1 -397303083 397303083 50568411_1"/>
    </vehicle>
    <vehicle id="178" depart="178.00">
        <route edges="8797399_1 8797399_2 8797399_3 -589533495_2 -589533495_1 -50568411_2 -50568411_1 -397303083 -397303086 397303086"/>
    </vehicle>
    <vehicle id="181" depart="181.00">
        <route edges="719395505_1 719395505_2 719395505_3 719026490_1 565167440 564768404_2 719395506_1 719395506_9 719395506_5 719395506_11 719395506_10 719395506_8 719395506_7 719395506_3 719395506_4 50575480_1 50575480_2 330310753_1 59432574 374711603 913105421 777809605_1 777809605_2 468422740 686997726 469146400 589533491"/>
    </vehicle>
    <vehicle id="183" depart="183.00">
        <route edges="397303084_1 397303084_2 8796216_1 8796216_2 484878996_1 484878996_2 484878996_5 484878996_3 484878996_4 8797131_3 565167449 772170796_1"/>
    </vehicle>
    <vehicle id="184" depart="184.00">
        <route edges="-156723058 8796353_3 8796353_8 8795651_2 8795651_3 8795651_4 621527175_9 8797131_1 8797131_2 8797131_6 8797131_5 8797131_10 8797131_9 8797131_3 8797131_4 8797131_7 8797131_8"/>
    </vehicle>
    <vehicle id="190" depart="190.00">
        <route edges="777809605_2 468422740 686997726 469146400 589533491 752702309 125568090 777809608 -589533495_2 -589533495_1 -50568411_2 -50568411_1 -397303083 -397303086 8796216_1 8796216_2 484878996_1 484878996_2 8797259_1 8797259_5 8797259_6 45308484"/>
    </vehicle>
    <vehicle id="194" depart="194.00">
        <route edges="8797231 752009525 589533490 719026486 708578563 589533498 468422742 590645027 468421273 468421268 38015401 628473035 330310713_1 330310713_3 330310713_2 484878996_1 484878996_2 484878996_5 484878996_3 484878996_4 8797131_3 8797131_4 747449010_1"/>
    </vehicle>
    <vehicle id="195" depart="195.00">
        <route edges="8797090_4 719395506_11 8795651_4 621527175_9 621527175_2 621527175_3 621527175_8 621527175_10 621527175_11 719026490_1"/>
    </vehicle>
    <vehicle id="197" depart="197.00">
        <route edges="-156723058 156723058 719395506_3 719395506_4 50575480_1 50575480_2 -45270121_3 -45270121_5 -45270121_2 45270121_2"/>
    </vehicle>
    <vehicle id="200" depart="200.00">
        <route edges="565167440 564768404_2 719395506_1 719395506_9 719395506_5 719395506_11 719395506_10 719395506_8 719395506_7 719395506_3 719395506_4 50575480_1 50575480_2 330310753_1 330310753_2 330310713_1 330310713_3 330310713_2"/>
    </vehicle>
    <vehicle id="201" depart="201.00">
        <route edges="565167469_2 719395505_3 719026490_1 565167440 564768404_2 719395506_1 719395506_9 719395506_5 719395506_11 8795651_4 621527175_9 8797131_1"/>
    </vehicle>
    <vehicle id="203" depart="203.00">
        <route edges="-8795503_5 8795503_5 8795503_3 330310753_1 59432574 589533496 397303085 397303084_1 397303084_2 397303086 397303083 50568411_1 50568411_2 44465157 747414953 8797231 752009525 589533494 589533493 589533492"/>
    </vehicle>
    <vehicle id="204" depart="204.00">
        <route edges="719395506_7 719395506_3 719395506_4 50575480_1 50575480_2 330310753_1 59432574 589533496 397303085 397303084_1 397303084_2 397303086 397303083 50568411_1 50568411_2 44465157 747414953 8797231 752009525 589533490 719026486 708578563 589533498 468422742 590645027 468421273"/>
    </vehicle>
    <vehicle id="207" depart="207.00">
        <route edges="302958496 621527175_4 621527175_6 565167464 -8796076_1 330310713_2 -8796216_2 -8796216_1 -397303084_2"/>
    </vehicle>
    <vehicle id="209" depart="209.00">
        <route edges="8796353_3 8796353_8 8795651_2 8795651_3 719395506_10 719395506_8 719395506_7 719395506_3 719395506_4 50575480_1 50575480_2 330310753_1 59432574 589533496 397303085 397303084_1 397303084_2 397303086 397303083 50568411_1 50568411_2 589533495_1 -589533495_1"/>
    </vehicle>
    <vehicle id="211" depart="211.00">
        <route edges="28317285_3 719395506_1 719395506_9 719395506_5 719395506_11 719395506_10 719395506_8 719395506_7 719395506_3 719395506_4 50575480_1 50575480_2 330310753_1 59432574 374711603 913105421 777809605_1 777809605_2 468422740 686997726 469146400 589533491 752702309"/>
    </vehicle>
    <vehicle id="212" depart="212.00">
        <route edges="565167487 8796353_5 8796353_4 8796353_3 8796353_8 8795651_2 8795651_3 8795651_4 621527175_9 8797131_1 8797131_2 8797131_6 8797131_5 8797131_10 8797131_9 8797554_1 8797554_2 8797554_4 8797554_3 38130522"/>
    </vehicle>
    <vehicle id="216" depart="216.00">
        <route edges="206857465_2 206857465_3 621527175_8 621527175_10 621527175_11 719026490_1 565167440 564768404_2 719395506_1 719395506_9 719395506_5 719395506_11 719395506_10 719395506_8 719395506_7 719395506_3 719395506_4 50575480_1 50575480_2 330310753_1 59432574 374711603 913105421 777809605_1 777809605_2 468422740 686997726 468422741 468421253 468421254 468421252 8797819_1 8797819_2 8797819_3 8797399_2"/>
    </vehicle>
    <vehicle id="217" depart="217.00">
        <route edges="589533492 125568090 777809608 -589533495_2 -589533495_1 -50568411_2 -50568411_1 -397303083 -397303086 8796216_1 8796216_2 484878996_1 484878996_2 -484878996_2"/>
    </vehicle>
    <vehicle id="221" depart="221.00">
        <route edges="708578563 589533498 468422742 590645027 468421273 468421268 38015401 628473035 330310713_1 330310713_3 330310713_2 484878996_1 484878996_2 8797259_1 8797259_5"/>
    </vehicle>
    <vehicle id="222" depart="222.00">
        <route edges="8796806_5 8796806_4 8796806_3 8795651_1 8795651_2 8795651_3 719395506_10 719395506_8 719395506_7 719395506_3 719395506_4 50575480_1 50575480_2 330310753_1 59432574 589533496 397303085 397303084_1 397303084_2 397303086 397303083 50568411_1 50568411_2 44465157 747414953 8797231 752009525 589533490 719026486"/>
    </vehicle>
    <vehicle id="224" depart="224.00">
        <route edges="8795651_4 621527175_9 8797131_1 8797131_2 8797131_6 8797131_5 8797131_10 8797131_9 -484878996_4 -484878996_3 -484878996_5 -484878996_2 -484878996_1 -8796216_2 -8796216_1 397303086 397303083 50568411_1 50568411_2 589533495_1 589533495_2 590831806"/>
    </vehicle>
    <vehicle id="226" depart="226.00">
        <route edges="565167469_2 719395505_3 719026490_1 565167440 564768404_2 719395506_1 719395506_9 719395506_5 719395506_11 719395506_10 719395506_8 719395506_7 719395506_3 719395506_4 50575480_1 50575480_2 330310753_1 59432574 589533496 397303085 397303084_1 397303084_2"/>
    </vehicle>
    <vehicle id="228" depart="228.00">
        <route edges="780276540 469146407_2 469146407_3 590571550 484879000 125568089_2 590571542_1 590571542_2 190641517 719395507 469146402 469146400 589533491 752702309 125568090 777809608 -589533495_2 -589533495_1 44465157 747414953 8797231 752009525 589533494"/>
    </vehicle>
    <vehicle id="230" depart="230.00">
        <route edges="-589533496 -8796601 45270121_2"/>
    </vehicle>
    <vehicle id="231" depart="231.00">
        <route edges="435978968 719395506_7 719395506_3 719395506_4 50575480_1 50575480_2 330310753_1 59432574 374711603 913105421 777809605_1 777809605_2 468422740 686997726 468422741 468421253 468421254 468421252 8797819_1 468421256_1"/>
    </vehicle>
    <vehicle id="233" depart="233.00">
        <route edges="361085971_1 361085970 361085968_2 -190641518_1 719026490_1 565167440 564768404_2 719395506_1 719395506_9 719395506_5 719395506_11 719395506_10 719395506_8 719395506_7 719395506_3 719395506_4 50575480_1 50575480_2 330310753_1 59432574 589533496 397303085 397303084_1 397303084_2 397303086 397303083 50568411_1 50568411_2 44465157 747414953 8797231 752009525"/>
    </vehicle>
    <vehicle id="234" depart="234.00">
        <route edges="774886806 8796353_8 8795651_2 8795651_3 719395506_10 719395506_8 719395506_7 719395506_3 719395506_4 50575480_1 50575480_2 330310753_1 59432574 589533496 397303085 397303084_1 397303084_2 397303086 397303083 50568411_1 50568411_2 -50568411_2"/>
    </vehicle>
    <vehicle id="237" depart="237.00">
        <route edges="50575480_2 330310753_1 330310753_2 330310713_1 330310713_3 8796076_1 8796076_2 8796076_3 8797131_10"/>
    </vehicle>
    <vehicle id="238" depart="238.00">
        <route edges="621527175_9 8797131_1 8797131_2 8797131_6 8797131_5 8797131_10 8797131_9 -484878996_4 -484878996_3 -484878996_5 -484878996_2 -484878996_1 -8796216_2 -8796216_1 -397303084_2 -397303084_1 -397303085 -589533496 374711603 913105421 777809605_1 777809605_2 468422740 686997726 469146400 589533491 752702309"/>
    </vehicle>
    <vehicle id="241" depart="241.00">
        <route edges="469146400 589533491 752702309 125568090 777809608 -589533495_2 -589533495_1 -50568411_2 -50568411_1 -397303083 -397303086 -397303084_2 -397303084_1 -397303085 -589533496 -8796601 45270121_2 780276544"/>
    </vehicle>
    <vehicle id="242" depart="242.00">
        <route edges="8796353_4 156723058 719395506_3 719395506_4 50575480_1 50575480_2 330310753_1 330310753_2 330310713_1 330310713_3 330310713_2 484878996_1 484878996_2 8797259_1 8797259_5 8797259_6"/>
    </vehicle>
    <vehicle id="244" depart="244.00">
        <route edges="590645027 468421273 468421268 38015401 628473035 330310713_1 330310713_3 330310713_2 484878996_1 484878996_2 8797259_1 8797259_5 8797259_6 8797259_4 8797259_7 8797259_3 8797259_2 631833935_1 631833935_2"/>
    </vehicle>