<?xml version="1.0" encoding="UTF-8"?>

<!-- generated on 2021-08-06 16:30:45 by Eclipse SUMO duarouter Version 1.9.2
<configuration xmlns:xsi="http://www.w3.org/2001/XMLSchema-instance" xsi:noNamespaceSchemaLocation="http://sumo.dlr.de/xsd/duarouterConfiguration.xsd">

    <input>
        <net-file value="sumo.net.xml"/>
        <route-files value="trips.trips.xml"/>
    </input>

    <output>
        <output-file value="sumo.rou.xml"/>
        <alternatives-output value="sumo.rou.alt.xml"/>
    </output>

    <time>
        <begin value="0"/>
        <end value="3000"/>
    </time>

    <report>
        <no-warnings value="true"/>
        <ignore-errors value="true"/>
        <no-step-log value="true"/>
    </report>

</configuration>
-->

<routes xmlns:xsi="http://www.w3.org/2001/XMLSchema-instance" xsi:noNamespaceSchemaLocation="http://sumo.dlr.de/xsd/routes_file.xsd">
    <vehicle id="133" depart="6.00" departLane="best" departPos="random" departSpeed="max">
        <route edges="8796806_2 8797090_2 8797090_3 8797090_4 719395506_11 719395506_10 719395506_8 719395506_7 719395506_3 719395506_4 50575480_2 330310753_1 59432574 397303085 397303084_1 397303084_2 397303086 397303083 50568411_1 -50568411_1 -397303083 -397303086 -397303084_2 -397303084_1 -397303085 374711603 777809605_2 468422740 686997726 589533491 752702309 125568090 -589533495_2 -589533495_1 -50568411_1 -397303083 -397303086 -397303084_2 -397303084_1 -397303085 38015401 330310713_1 330310713_3 330310713_2 -8796216_2 -8796216_1 397303086 397303083 50568411_1 -50568411_1 -397303083 -397303086 8796216_1 8796216_2 -330310713_2"/>
    </vehicle>
    <vehicle id="350" depart="17.00" departLane="best" departPos="random" departSpeed="max">
        <route edges="565167486 156723058 719395506_3 719395506_4 50575480_2 330310753_1 330310753_2 330310713_1 330310713_3 8796076_1 -8796076_1 -330310713_3 -330310713_1 330310713_1 330310713_3 330310713_2 484878996_1 484878996_2 484878996_5 484878996_3 -484878996_3 -484878996_5 -484878996_2 -484878996_1 -330310713_2 -330310713_3 -330310713_1 330310713_1 330310713_3 8796076_1 8796076_3 -8796076_3"/>
    </vehicle>
    <vehicle id="390" depart="19.00" departLane="best" departPos="random" departSpeed="max">
        <route edges="269095741 621527175_3 621527175_8 621527175_10 621527175_11 719026490_1 565167440 564768404_2 719395506_1 719395506_9 719395506_5 719395506_11 719395506_10 719395506_8 719395506_7 719395506_3 719395506_4 50575480_2 330310753_1 59432574 397303085 397303084_1 397303084_2 397303086 397303083 50568411_1 589533495_1 -589533495_1 -50568411_1 -397303083 -397303086 8796216_1 8796216_2 -8796216_2 -8796216_1 397303086 397303083 50568411_1 589533495_1 -589533495_1 -50568411_1 -397303083 -397303086 -397303084_2 -397303084_1 -397303085 374711603 777809605_2 468422740"/>
    </vehicle>
    <vehicle id="418" depart="20.00" departLane="best" departPos="random" departSpeed="max">
        <route edges="468421256_2 468421255 589533491 752702309 125568090 -589533495_2 -589533495_1 -50568411_1 -397303083 -397303086 8796216_1 8796216_2 -8796216_2 -8796216_1 8796216_1 8796216_2 484878996_1 484878996_2 484878996_5 484878996_3 484878996_4 8797554_1 8797554_4 -8797554_4 -8797554_1 -484878996_4 -484878996_3 -484878996_5 -484878996_2 -484878996_1 -8796216_2 -8796216_1 397303086 397303083 50568411_1 44465157 589533494 125568090 -589533495_2 -589533495_1 -50568411_1 -397303083 -397303086 8796216_1 8796216_2 484878996_1 484878996_2 8797259_1 8797259_5 8797259_6 45308484"/>
    </vehicle>
    <vehicle id="602" depart="29.00" departLane="best" departPos="random" departSpeed="max">
        <route edges="719395506_7 -156723058 8796353_3 8795651_2 8795651_3 8795651_4 621527175_9 621527175_2 621527175_3 621527175_8 621527175_10 621527175_11 190641518_1 -190641518_1 719026490_1 565167440 564768404_2 719395506_1 719395506_9 269095741 621527175_3 621527175_8 621527175_10 621527175_11 719026490_1 565167440 564768404_2 719395506_1 719395506_9 719395506_5 719395506_11 719395506_10 719395506_8 719395506_7 719395506_3 719395506_4 50575480_2 330310753_1 59432574 374711603 777809605_2 468422740 686997726 468422741 468421253 468421254 468421252 8797819_1 8797819_2 8797819_3 8797399_2 8797399_3 -589533495_2 -589533495_1 -50568411_1 -397303083 -397303086 8796216_1 8796216_2 484878996_1 484878996_2 484878996_5 484878996_3 484878996_4 8797131_3 565167449 772170796_3 772170797"/>
    </vehicle>
    <vehicle id="685" depart="33.00" departLane="best" departPos="random" departSpeed="max">
        <route edges="8796353_3 8795651_2 8795651_3 719395506_10 719395506_8 719395506_7 719395506_3 719395506_4 50575480_2 330310753_1 330310753_2 330310713_1 330310713_3 8796076_1 -8796076_1 330310713_2 -8796216_2 -8796216_1 -397303084_2 -397303084_1 -397303085 -8796601 45270121_2 45270121_3 -8795503_3 8795503_3 330310753_1 330310753_2 330310713_1 330310713_3 330310713_2 484878996_1 484878996_2 484878996_5 484878996_3 484878996_4 8797131_3 565167449 772170796_3 772170796_2"/>
    </vehicle>
    <vehicle id="743" depart="36.00" departLane="best" departPos="random" departSpeed="max">
        <route edges="206857465_3 621527175_8 621527175_10 621527175_11 719026490_1 565167440 564768404_2 719395506_1 719395506_9 719395506_5 719395506_11 719395506_10 719395506_8 719395506_7 -156723058 156723058 719395506_3 719395506_4 50575480_2 330310753_1 330310753_2 330310713_1 330310713_3 330310713_2 -8796216_2 -8796216_1 -397303084_2 -397303084_1 -397303085 374711603 777809605_2 468422740 686997726 468422741 468421253 468421254 468421252 8797819_1 8797819_2 8797819_3 8797399_2 8797399_3 -589533495_2 -589533495_1 -50568411_1 -397303083 -397303086 -397303084_2 -397303084_1 -397303085 -8796601 45270121_2 45270121_3 330310753_1 59432574 397303085 397303084_1 397303084_2 397303086 397303083 50568411_1 589533495_1 -589533495_1"/>
    </vehicle>
    <vehicle id="778" depart="38.00" departLane="best" departPos="random" departSpeed="max">
        <route edges="269095741 621527175_3 621527175_8 621527175_10 565167469_1 565167469_2 719395505_3 719026490_1 565167440 564768404_2 719395506_1 719395506_9 719395506_5 719395506_11 8795651_4 621527175_9 621527175_2 621527175_3 621527175_8 621527175_10 621527175_11 719026490_1 565167440 564768404_2 719395506_1 719395506_9 719395506_5 719395506_11 719395506_10 719395506_8 719395506_7 -156723058 -8796353_5 -8796353_7 -8796353_6 -8796353_2 8796353_2 8796353_6 8796353_7 8796353_5 8796353_3 8795651_2 8795651_3 8795651_4 621527175_9 621527175_2 621527175_3 621527175_8 621527175_10 565167469_1 565167469_2 719395505_3 719026490_1 565167440 564768404_2 719395506_1 719395506_9 719395506_5 719395506_11 719395506_10 719395506_8 719395506_7 719395506_3 719395506_4 50575480_2 330310753_1 59432574 374711603"/>
    </vehicle>
    <vehicle id="904" depart="44.00" departLane="best" departPos="random" departSpeed="max">
        <route edges="8796216_2 -8796216_2 -8796216_1 397303086 397303083 50568411_1 44465157 589533494 125568090 -589533495_2 -589533495_1 -50568411_1 -397303083 -397303086 8796216_1 8796216_2 484878996_1 484878996_2 484878996_5 484878996_3 484878996_4 8797554_1 -8797554_1 -484878996_4 -484878996_3 -484878996_5 -484878996_2 -484878996_1 -8796216_2 -8796216_1 -397303084_2 -397303084_1 -397303085 -8796601 45270121_2 45270121_3 -8795503_3 -8795503_5 8795503_5 8795503_3 330310753_1 330310753_2 330310713_1 330310713_3 330310713_2 484878996_1 484878996_2 8797259_1 8797259_5 8797259_6"/>
    </vehicle>
    <vehicle id="1053" depart="52.00" departLane="best" departPos="random" departSpeed="max">
        <route edges="361085970 361085968_2 -190641518_1 190641518_1 -190641518_1 719026490_1 565167440 564768404_2 719395506_1 719395506_9 719395506_5 719395506_11 8795651_4 621527175_9 8797131_1 8797131_2 8797131_6 8797131_5 8797131_9 8797554_1 8797554_4 -8797554_4 -8797554_1 -484878996_4 -484878996_3 -484878996_5 -484878996_2 -484878996_1 -8796216_2 -8796216_1 -397303084_2 -397303084_1 -397303085 374711603 777809605_2 468422740 686997726 468422741 468421253 468421254 468421252 8797819_1 8797819_2 8797819_3 8797399_2 40802860 8797819_3 8797399_2 8797399_3 -589533495_2 -589533495_1 -50568411_1 -397303083 -397303086 -397303084_2 -397303084_1 -397303085 -8796601 45270121_2 45270121_3 330310753_1 330310753_2"/>
    </vehicle>
    <vehicle id="1084" depart="53.00" departLane="best" departPos="random" departSpeed="max">
        <route edges="719395506_4 50575480_2 330310753_1 330310753_2 330310713_1 330310713_3 330310713_2 -8796216_2 -8796216_1 -397303084_2 -397303084_1 -397303085 397303085 397303084_1 397303084_2 397303086 397303083 50568411_1 589533495_1 -589533495_1 44465157 589533490 589533498 468422742 590645027 468421268"/>
    </vehicle>
    <vehicle id="1132" depart="55.00" departLane="best" departPos="random" departSpeed="max">
        <route edges="125568090 -589533495_2 -589533495_1 -50568411_1 -397303083 -397303086 8796216_1 -8796216_1 397303086 -397303086 -397303084_2 -397303084_1 -397303085 -8796601 45270121_2 45270121_3 330310753_1 330310753_2 330310713_1 330310713_3 330310713_2 484878996_1 484878996_2 8797259_1 8797259_5 8797259_6 8797259_4 8797259_7"/>
    </vehicle>
    <vehicle id="1171" depart="57.00" departLane="best" departPos="random" departSpeed="max">
        <route edges="484878996_1 484878996_2 484878996_5 484878996_3 484878996_4 8797554_1 8797554_4 -8797554_4 -8797554_1 -484878996_4 -484878996_3 -484878996_5 -484878996_2 -484878996_1 -8796216_2 -8796216_1 -397303084_2 -397303084_1 -397303085 -8796601 45270121_2 45270121_3 -45270121_3 -45270121_2 8796601 397303085 397303084_1 397303084_2 397303086 397303083 50568411_1 44465157 589533494 125568090 -589533495_2 -589533495_1 -50568411_1 -397303083 -397303086 8796216_1 8796216_2 484878996_1 484878996_2 484878996_5 484878996_3 -484878996_3 -484878996_5 -484878996_2 -484878996_1 -8796216_2 -8796216_1 397303086 397303083 50568411_1 589533495_1"/>
    </vehicle>
    <vehicle id="1256" depart="61.00" departLane="best" departPos="random" departSpeed="max">
        <route edges="8796216_1 8796216_2 -330310713_2 8796076_1 8796076_3 8797131_9 -484878996_4 -484878996_3 -484878996_5 -484878996_2 -484878996_1 -8796216_2 -8796216_1 -397303084_2 -397303084_1 -397303085 374711603 777809605_2 468422740 686997726 589533491 752702309 125568090 -589533495_2 -589533495_1 -50568411_1 -397303083 -397303086 8796216_1 8796216_2 484878996_1 484878996_2 484878996_5 484878996_3 484878996_4 8797554_1 -8797554_1 -484878996_4 -484878996_3 -484878996_5 -484878996_2 -484878996_1 -8796216_2 -8796216_1 397303086 397303083 50568411_1 44465157 589533490 589533498 468422742 590645027 468421268 38015401 330310713_1 330310713_3 330310713_2 484878996_1 484878996_2 484878996_5 484878996_3 484878996_4 8797554_1 8797554_4"/>
    </vehicle>
    <vehicle id="1273" depart="62.00" departLane="best" departPos="random" departSpeed="max">
        <route edges="156723058 -156723058 -8796353_5 -8796353_7 8796353_7 8796353_5 8796353_3 8795651_2 8795651_3 8795651_4 621527175_9 621527175_2 621527175_3 621527175_8 621527175_10 621527175_11 719026490_1 565167440 564768404_2 719395506_1 719395506_9 719395506_5 719395506_11 719395506_10 719395506_8 719395506_7 719395506_3 719395506_4 50575480_2 330310753_1 59432574 397303085 397303084_1 397303084_2 397303086 397303083 50568411_1 44465157 589533490 589533498 468422742 590645027 468421268 397303085 397303084_1 397303084_2 397303086 468421275"/>
    </vehicle>
    <vehicle id="1305" depart="64.00" departLane="best" departPos="random" departSpeed="max">
        <route edges="8796806_5 8796806_4 8796806_3 8795651_1 8795651_2 8795651_3 719395506_10 719395506_8 719395506_7 719395506_3 719395506_4 50575480_2 330310753_1 59432574 397303085 397303084_1 397303084_2 397303086 397303083 50568411_1 44465157 589533494 125568090 -589533495_2 589533495_2 -589533495_2 -589533495_1 -50568411_1 -397303083 397303083 50568411_1 589533495_1 589533495_2 -589533495_2 -589533495_1 -50568411_1 -397303083 -397303086 8796216_1 8796216_2 484878996_1 484878996_2 8797259_1 8797259_5 8797259_6 8797259_4 8797259_7 8797259_3 8797259_2 631833935_2"/>
    </vehicle>
    <vehicle id="1408" depart="69.00" departLane="best" departPos="random" departSpeed="max">
        <route edges="779698678 8796806_4 8796806_3 8795651_1 8795651_2 8795651_3 719395506_10 719395506_8 719395506_7 719395506_3 719395506_4 50575480_2 330310753_1 59432574 397303085 397303084_1 397303084_2 397303086 397303083 50568411_1 -50568411_1 -397303083 -397303086 -397303084_2 -397303084_1 -397303085 38015401 330310713_1 330310713_3 330310713_2 -8796216_2 -8796216_1 8796216_1 -8796216_1 -397303084_2 -397303084_1 -397303085 374711603 777809605_2 468422740 686997726 468422741 468421253 468421254 468421252 8797819_1 468421256_1 468421256_2 468421255 589533491 752702309 125568090 -589533495_2 -589533495_1 -50568411_1 -397303083 -397303086 8796216_1 8796216_2 484878996_1 484878996_2 8797259_1 8797259_5 8797259_6 8797259_4 8797259_7 8797403_1 8797403_2 8797403_3"/>
    </vehicle>
    <vehicle id="1416" depart="69.00" departLane="best" departPos="random" departSpeed="max">
        <route edges="-8796076_1 330310713_2 -8796216_2 -8796216_1 -397303084_2 397303084_2 8796216_1 8796216_2 484878996_1 484878996_2 484878996_5 484878996_3 484878996_4 8797554_1 8797554_4 -8797554_4 -8797554_1 -484878996_4 -484878996_3 -484878996_5 -484878996_2 -484878996_1 -8796216_2 -8796216_1 397303086 397303083 50568411_1 44465157 589533490 589533498 468422742 590645027 468421268 38015401 330310713_1 330310713_3 -330310713_3 330310713_3 330310713_2 -8796216_2 -8796216_1 -397303084_2 -397303084_1 -397303085 -8796601 45270121_2 -45270121_2"/>
    </vehicle>
    <vehicle id="1466" depart="72.00" departLane="best" departPos="random" departSpeed="max">
        <route edges="774886806 8795651_2 8795651_3 719395506_10 719395506_8 719395506_7 719395506_3 206657080 435978968 719395506_7 -156723058 8796353_3 8795651_2 8795651_3 8795651_4 621527175_9 621527175_2 621527175_3 621527175_8 621527175_10 621527175_11 719026490_1 565167440 564768404_2 719395506_1 719395506_9 719395506_5 719395506_11 8795651_4 621527175_9 621527175_2 621527175_3 621527175_8 621527175_10 621527175_11 190641518_1 -190641518_1 719026490_1 565167440 564768404_2 719395506_1 719395506_9 719395506_5 719395506_11 719395506_10 719395506_8 719395506_7 719395506_3 719395506_4 50575480_2 330310753_1 59432574 374711603 777809605_2 468422740 686997726 468422741 468421253 468421254 468421252 8797819_1 8797819_2 8797819_3 8797399_2 40802860"/>
    </vehicle>
    <vehicle id="1469" depart="72.00" departLane="best" departPos="random" departSpeed="max">
        <route edges="8797130_3 8797130_4 8797130_5 719395506_5 719395506_11 719395506_10 719395506_8 719395506_7 719395506_3 719395506_4 50575480_2 330310753_1 59432574 374711603 777809605_2 468422740 686997726 589533491 752702309 125568090 -589533495_2 -589533495_1 -50568411_1 -397303083 -397303086 8796216_1 8796216_2 484878996_1 484878996_2 484878996_5 484878996_3 484878996_4 8797554_1 8797554_4 -8797554_4 -8797554_1 -484878996_4 -484878996_3 -484878996_5 -484878996_2 -484878996_1 -8796216_2 -8796216_1 -397303084_2 -397303084_1 -397303085 -8796601 8796601 38015401 330310713_1 330310713_3 330310713_2"/>
    </vehicle>
    <vehicle id="1684" depart="82.00" departLane="best" departPos="random" departSpeed="max">
        <route edges="8797131_2 8797131_6 8797131_5 8797131_9 -484878996_4 -484878996_3 -484878996_5 -484878996_2 -484878996_1 -8796216_2 -8796216_1 -397303084_2 -397303084_1 -397303085 397303085 397303084_1 397303084_2 397303086 -397303086 -397303084_2 -397303084_1 -397303085 397303085 397303084_1 397303084_2 8796216_1 8796216_2 -330310713_2 8796076_1 -8796076_1 330310713_2 -8796216_2 -8796216_1 -397303084_2 -397303084_1 -397303085 374711603 777809605_2 468422740 686997726 468422741 468421253 468421254 468421252 8797819_1 8797819_2 8797819_3"/>
    </vehicle>
    <vehicle id="1898" depart="93.00" departLane="best" departPos="random" departSpeed="max">
        <route edges="565167466 719395506_8 719395506_7 -156723058 8796353_3 8795651_2 8795651_3 8795651_4 621527175_9 621527175_2 621527175_3 621527175_8 621527175_10 621527175_11 719026490_1 565167440 564768404_2 719395506_1 719395506_9 719395506_5 719395506_11 719395506_10 719395506_8 719395506_7 -156723058 -8796353_5 -8796353_7 -8796353_6 -8796353_2 8796353_2 8796353_6 8796353_7 8796353_5 156723058 719395506_3 719395506_4 50575480_2 -45270121_3 45270121_3 330310753_1 59432574 397303085 397303084_1 397303084_2 397303086 397303083 50568411_1 44465157 589533490 589533498 468422742 590645027"/>
    </vehicle>
    <vehicle id="2124" depart="104.00" departLane="best" departPos="random" departSpeed="max">
        <route edges="469146403 8796570_1 8796570_2 125568089_1 125568089_2 590571542_2 469146402 589533491 752702309 125568090 -589533495_2 -589533495_1 -50568411_1 -397303083 -397303086 -397303084_2 -397303084_1 -397303085 -8796601 45270121_2 45270121_3 330310753_1 330310753_2 330310713_1 330310713_3 330310713_2 -8796216_2 -8796216_1 -397303084_2 -397303084_1 -397303085 -8796601 45270121_2 45270121_3 330310753_1 59432574 374711603 777809605_2 468422740 686997726 468422741 468421253 468421254 468421252 8797819_1 468421256_1 468421256_2 468421255 589533491 752702309 125568090 -589533495_2 -589533495_1 -50568411_1 -397303083 -397303086 8796216_1 8796216_2 484878996_1 484878996_2 -484878996_2 -484878996_1 -330310713_2 -330310713_3 330310713_3"/>
    </vehicle>
    <vehicle id="2162" depart="106.00" departLane="best" departPos="random" departSpeed="max">
        <route edges="564768404_1 564768404_2 719395506_1 719395506_9 719395506_5 719395506_11 8795651_4 621527175_9 621527175_2 621527175_3 621527175_8 621527175_10 621527175_11 719026490_1 565167440 564768404_2 719395505_1 719395505_2 719395505_3 719026490_1 565167440 564768404_2 719395506_1 719395506_9 719395506_5 719395506_11 719395506_10 719395506_8 719395506_7 719395506_3 719395506_4 50575480_2 330310753_1 330310753_2 330310713_1 330310713_3 330310713_2 -8796216_2 -8796216_1 397303086 397303083 50568411_1 -50568411_1 -397303083 -397303086 8796216_1 8796216_2 484878996_1 484878996_2 484878996_5 484878996_3 484878996_4 8797131_3 8797131_4 747449010_1 747449010_2 747449012"/>
    </vehicle>
    <vehicle id="2177" depart="106.00" departLane="best" departPos="random" departSpeed="max">
        <route edges="-484878996_4 -484878996_3 -484878996_5 -484878996_2 -484878996_1 -8796216_2 -8796216_1 397303086 397303083 50568411_1 -50568411_1 -397303083 -397303086 -397303084_2 -397303084_1 -397303085 397303085 397303084_1 397303084_2 397303086 397303083 50568411_1 589533495_1 -589533495_1 -50568411_1 -397303083 -397303086 8796216_1 8796216_2 -8796216_2 -8796216_1 -397303084_2 -397303084_1 -397303085 374711603 777809605_2"/>
    </vehicle>
    <vehicle id="2318" depart="114.00" departLane="best" departPos="random" departSpeed="max">
        <route edges="719395509 589533498 468422742 590645027 468421268 397303085 397303084_1 -397303084_1 -397303085 374711603 777809605_2 468422740 686997726 468422741 468421253 468421254 468421252 8797819_1 8797819_2 8797819_3 8797399_2 40802860 8797819_3 8797399_2 8797399_3 -589533495_2 -589533495_1 -50568411_1 -397303083 -397303086 8796216_1 8796216_2 -330310713_2 8796076_1 8796076_3 8797131_9 8797554_1 8797554_4 -8797554_4 -8797554_1 8797131_3 565167449 772170796_3 772170796_2"/>
    </vehicle>
    <vehicle id="2360" depart="116.00" departLane="best" departPos="random" departSpeed="max">
        <route edges="8796216_1 -8796216_1 397303086 397303083 50568411_1 589533495_1 589533495_2 -589533495_2 -589533495_1 -50568411_1 -397303083 -397303086 8796216_1 8796216_2 484878996_1 484878996_2 484878996_5 484878996_3 484878996_4 8797554_1 -8797554_1 -484878996_4 -484878996_3 -484878996_5 -484878996_2 -484878996_1 -8796216_2 -8796216_1 -397303084_2 -397303084_1 -397303085 38015401 330310713_1 330310713_3 330310713_2 -330310713_2"/>
    </vehicle>
    <vehicle id="2369" depart="116.00" departLane="best" departPos="random" departSpeed="max">
        <route edges="-589533495_2 -589533495_1 -50568411_1 -397303083 -397303086 397303086 397303083 50568411_1 -50568411_1 -397303083 -397303086 -397303084_2 -397303084_1 -397303085 38015401 330310713_1 330310713_3 330310713_2 484878996_1 484878996_2 484878996_5 484878996_3 484878996_4 8797554_1 -8797554_1 -484878996_4 -484878996_3 -484878996_5 -484878996_2 -484878996_1 -8796216_2 -8796216_1 397303086 397303083 50568411_1 589533495_1 589533495_2 590831806"/>
    </vehicle>
    <vehicle id="2399" depart="118.00" departLane="best" departPos="random" departSpeed="max">
        <route edges="8796806_1 8796806_5 8796806_4 8796806_3 8795651_1 8795651_2 8795651_3 719395506_10 719395506_8 719395506_7 719395506_3 719395506_4 50575480_2 330310753_1 59432574 374711603 777809605_2 468422740 686997726 468422741 468421253 468421254 468421252 8797819_1 8797819_2 8797819_3 8797399_2 8797399_3 -589533495_2 -589533495_1 -50568411_1 -397303083 -397303086 8796216_1 8796216_2 484878996_1 484878996_2 484878996_5 484878996_3 484878996_4 8797554_1 8797554_4 -8797554_4 -8797554_1 -484878996_4 -484878996_3 -484878996_5 -484878996_2 -484878996_1 -8796216_2 -8796216_1 -397303084_2 -397303084_1 -397303085 -8796601 45270121_2 45270121_3 -45270121_3 45270121_3 330310753_1 330310753_2 621527175_1 778884309"/>
    </vehicle>
    <vehicle id="2417" depart="119.00" departLane="best" departPos="random" departSpeed="max">
        <route edges="8796353_2 8796353_6 8796353_7 8796353_5 156723058 719395506_3 719395506_4 50575480_2 330310753_1 59432574 397303085 397303084_1 397303084_2 8796216_1 8796216_2 -330310713_2 8796076_1 -8796076_1 330310713_2 -8796216_2 -8796216_1 -397303084_2 -397303084_1 -397303085 -8796601 45270121_2 45270121_3 -8795503_3 8795503_3 330310753_1 330310753_2 330310713_1 330310713_3 330310713_2 -8796216_2 -8796216_1 -397303084_2 -397303084_1 -397303085"/>
    </vehicle>
    <vehicle id="2438" depart="120.00" departLane="best" departPos="random" departSpeed="max">
        <route edges="8796570_1 8796570_2 125568089_1 125568089_2 590571542_2 469146402 589533491 752702309 125568090 -589533495_2 -589533495_1 -50568411_1 -397303083 -397303086 8796216_1 8796216_2 -330310713_2 -330310713_3 -330310713_1 330310713_1 330310713_3 330310713_2 -8796216_2 -8796216_1 -397303084_2 -397303084_1 -397303085 397303085 397303084_1 397303084_2 8796216_1 -8796216_1 -397303084_2 -397303084_1 -397303085 374711603 777809605_2 468422740 686997726 589533491 752702309 125568090 -589533495_2 -589533495_1 -50568411_1 -397303083 -397303086 8796216_1 8796216_2 484878996_1 484878996_2 484878996_5 484878996_3 484878996_4 8797554_1 45330151_1 565167454_2"/>
    </vehicle>
    <vehicle id="2441" depart="120.00" departLane="best" departPos="random" departSpeed="max">
        <route edges="686997726 589533491 752702309 125568090 -589533495_2 -589533495_1 -50568411_1 -397303083 -397303086 397303086 -397303086 8796216_1 8796216_2 484878996_1 484878996_2 484878996_5 484878996_3 484878996_4 8797554_1 -8797554_1 -484878996_4 -484878996_3 -484878996_5 -484878996_2 -484878996_1 -8796216_2 -8796216_1 397303086 397303083 50568411_1 44465157 589533490 589533498 468422742 590645027 468421268 -8796601 45270121_2 45270121_3 -8795503_3 -8795503_5"/>
    </vehicle>
    <vehicle id="2500" depart="123.00" departLane="best" departPos="random" departSpeed="max">
        <route edges="8797090_2 8797090_3 8797090_4 719395506_11 719395506_10 719395506_8 719395506_7 719395506_3 719395506_4 50575480_2 -8795503_3 8795503_3 330310753_1 59432574 374711603 777809605_2 468422740 686997726 589533491 752702309 125568090 -589533495_2 -589533495_1 -50568411_1 -397303083 -397303086 8796216_1 8796216_2 -330310713_2 -330310713_3 -330310713_1 330310713_1 330310713_3 330310713_2 -8796216_2 -8796216_1 397303086 -397303086"/>
    </vehicle>
    <vehicle id="2535" depart="125.00" departLane="best" departPos="random" departSpeed="max">
        <route edges="564768404_2 719395506_1 719395506_9 719395506_5 719395506_11 719395506_10 719395506_8 719395506_7 719395506_3 719395506_4 50575480_2 -8795503_3 8795503_3 330310753_1 330310753_2 330310713_1 330310713_3 330310713_2 484878996_1 484878996_2 484878996_5 -484878996_5 -484878996_2 -484878996_1 -8796216_2 -8796216_1 -397303084_2 -397303084_1 -397303085 374711603 777809605_2 468422740 686997726 468422741 468421253 468421254 468421252 8797819_1 468421256_1 468421256_2 468421255 589533491 752702309 125568090 -589533495_2 -589533495_1 -50568411_1 -397303083 -397303086 -397303084_2 -397303084_1 -397303085 374711603 777809605_2 468422740 686997726 589533491 752702309 125568090 -589533495_2 -589533495_1 -50568411_1 -397303083 -397303086 -397303084_2 -397303084_1 -397303085 397303085"/>
    </vehicle>
    <vehicle id="2552" depart="126.00" departLane="best" departPos="random" departSpeed="max">
        <route edges="435978968 719395506_7 719395506_3 719395506_4 50575480_2 330310753_1 59432574 397303085 397303084_1 397303084_2 397303086 397303083 50568411_1 -50568411_1 -397303083 -397303086 -397303084_2 -397303084_1 -397303085 374711603 777809605_2 468422740 686997726 589533491 752702309 125568090 -589533495_2 -589533495_1 -50568411_1 -397303083 -397303086 8796216_1 8796216_2 -330310713_2 -330310713_3 -330310713_1 330310713_1 330310713_3 330310713_2 484878996_1 484878996_2 8797259_1 8797259_5 8797259_6"/>
    </vehicle>
    <vehicle id="2864" depart="141.00" departLane="best" departPos="random" departSpeed="max">
        <route edges="564768404_1 564768404_2 719395506_1 719395506_9 719395506_5 719395506_11 719395506_10 719395506_8 719395506_7 719395506_3 719395506_4 50575480_2 330310753_1 59432574 397303085 397303084_1 397303084_2 397303086 397303083 50568411_1 589533495_1 589533495_2 -589533495_2 -589533495_1 -50568411_1 -397303083 -397303086 -397303084_2 -397303084_1 -397303085 374711603 777809605_2 468422740 686997726 468422741 468421253 468421254 468421252 8797819_1 468421256_1 468421256_2 468421255 589533491 752702309 125568090 -589533495_2 -589533495_1 -50568411_1 -397303083 -397303086 -397303084_2 -397303084_1 -397303085 -8796601 8796601 397303085 397303084_1 397303084_2 397303086 397303083 50568411_1 44465157 589533490"/>
    </vehicle>
    <vehicle id="2896" depart="142.00" departLane="best" departPos="random" departSpeed="max">
        <route edges="621527175_10 621527175_11 719026490_1 565167440 564768404_2 719395506_1 719395506_9 719395506_5 719395506_11 8795651_4 621527175_9 8797131_1 8797131_2 8797131_6 8797131_5 8797131_9 -484878996_4 -484878996_3 -484878996_5 -484878996_2 -484878996_1 -8796216_2 -8796216_1 397303086 397303083 50568411_1 589533495_1 589533495_2 -589533495_2 -589533495_1 -50568411_1 -397303083 -397303086 -397303084_2 -397303084_1 -397303085 38015401 330310713_1 330310713_3 330310713_2 484878996_1 484878996_2 484878996_5 484878996_3 484878996_4 8797131_3 565167449 772170796_3 772170796_2"/>
    </vehicle>
    <vehicle id="2942" depart="145.00" departLane="best" departPos="random" departSpeed="max">
        <route edges="778910162 8797090_4 719395506_11 719395506_10 719395506_8 719395506_7 -156723058 -8796353_5 -8796353_7 -8796353_6 -8796353_2 8796353_2 8796353_6 8796353_7 8796353_5 8796353_3 8795651_2 8795651_3 8795651_4 621527175_9 621527175_2 621527175_3 621527175_8 621527175_10 621527175_11 719026490_1 565167440 564768404_2 719395506_1 719395506_9 719395506_5 719395506_11 719395506_10 719395506_8 719395506_7 -156723058 8796353_3 8795651_2 8795651_3 8795651_4 621527175_9 8797131_1 206857465_1 206857465_2 206857465_3 621527175_8 621527175_10 621527175_11 719026490_1 565167440 564768404_2 719395506_1 719395506_9 719395506_5 719395506_11 719395506_10 719395506_8 719395506_7 719395506_3 719395506_4 50575480_2 330310753_1 59432574 374711603 777809605_2 468422740 686997726 468422741 468421253 468421254 468421252 8797819_1 8797819_2 8797819_3 8797399_2 40802860"/>
    </vehicle>
    <vehicle id="2950" depart="146.00" departLane="best" departPos="random" departSpeed="max">
        <route edges="468421274 -397303086 -397303084_2 -397303084_1 -397303085 397303085 397303084_1 397303084_2 -397303084_2 397303084_2 397303086 -397303086 8796216_1 8796216_2 484878996_1 484878996_2 484878996_5 484878996_3 484878996_4 8797554_1 8797554_4 8797554_3 -8797554_3 -8797554_4 -8797554_1 -484878996_4 -484878996_3 -484878996_5 -484878996_2 -484878996_1 -8796216_2 -8796216_1 -397303084_2 -397303084_1 -397303085 -8796601 45270121_2 45270121_3 -8795503_3 207634647"/>
    </vehicle>
    <vehicle id="3203" depart="158.00" departLane="best" departPos="random" departSpeed="max">
        <route edges="469146407_2 469146407_3 590571550 8796806_1 8796806_5 8796806_4 8796806_3 8795651_1 8795651_2 8795651_3 8795651_4 621527175_9 8797131_1 206857465_1 771992002 206857465_3 621527175_8 621527175_10 621527175_11 719026490_1 565167440 564768404_2 719395506_1 719395506_9 719395506_5 719395506_11 719395506_10 719395506_8 719395506_7 719395506_3 719395506_4 50575480_2 330310753_1 59432574 -8796601 8796601 397303085 397303084_1 397303084_2 397303086 397303083 50568411_1 589533495_1 -589533495_1 -50568411_1 -397303083 -397303086 8796216_1 8796216_2 484878996_1 484878996_2 484878996_5 484878996_3 484878996_4 8797554_1 -8797554_1 -484878996_4 -484878996_3 -484878996_5 -484878996_2 -484878996_1 -8796216_2 -8796216_1 8796216_1"/>
    </vehicle>
    <vehicle id="3360" depart="166.00" departLane="best" departPos="random" departSpeed="max">