<?xml version="1.0" encoding="UTF-8"?>

<!-- generated on 2021-06-08 11:55:16 by Eclipse SUMO netconvert Version 1.9.2
<configuration xmlns:xsi="http://www.w3.org/2001/XMLSchema-instance" xsi:noNamespaceSchemaLocation="http://sumo.dlr.de/xsd/netconvertConfiguration.xsd">

    <input>
        <node-files value="sumo.nod.xml"/>
        <edge-files value="sumo.edg.xml"/>
    </input>

    <output>
        <output-file value="sumo.net.xml"/>
    </output>

    <report>
        <aggregate-warnings value="5"/>
    </report>

</configuration>
-->

<net version="1.9" junctionCornerDetail="5" limitTurnSpeed="5.50" xmlns:xsi="http://www.w3.org/2001/XMLSchema-instance" xsi:noNamespaceSchemaLocation="http://sumo.dlr.de/xsd/net_file.xsd">

    <location netOffset="481.96,612.01" convBoundary="0.00,0.00,999.71,1180.29" origBoundary="-481.96,-612.01,517.74,568.29" projParameter="!"/>

    <edge id=":1057847670_0" function="internal">
        <lane id=":1057847670_0_0" index="0" speed="13.89" length="8.00" width="4.00" shape="790.26,1023.03 787.13,1030.39"/>
    </edge>
    <edge id=":1057847670_1" function="internal">
        <lane id=":1057847670_1_0" index="0" speed="6.16" length="2.00" width="4.00" shape="785.50,1024.34 786.86,1025.48 786.96,1025.67"/>
    </edge>
    <edge id=":1057847670_2" function="internal">
        <lane id=":1057847670_2_0" index="0" speed="6.16" length="4.95" width="4.00" shape="786.96,1025.67 787.59,1026.86 787.68,1028.50 787.13,1030.39"/>
    </edge>
    <edge id=":1422600187_0" function="internal">
        <lane id=":1422600187_0_0" index="0" speed="6.92" length="7.09" width="4.00" shape="614.36,987.69 613.43,986.08 612.20,984.94 610.66,984.26 608.81,984.04"/>
    </edge>
    <edge id=":1422600187_1" function="internal">
        <lane id=":1422600187_1_0" index="0" speed="13.89" length="7.95" width="4.00" shape="616.53,982.54 614.33,983.38 612.77,983.82 611.16,983.99 608.81,984.04"/>
    </edge>
    <edge id=":1422600205_0" function="internal">
        <lane id=":1422600205_0_0" index="0" speed="5.06" length="5.89" width="4.00" shape="578.82,1032.75 578.79,1034.44 579.34,1035.57 580.46,1036.13 582.15,1036.13"/>
    </edge>
    <edge id=":1422600205_1" function="internal">
        <lane id=":1422600205_1_0" index="0" speed="13.89" length="7.99" width="4.00" shape="578.82,1032.75 578.44,1035.09 578.11,1036.68 577.68,1038.25 576.97,1040.51"/>
    </edge>
    <edge id=":1422600216_0" function="internal">
        <lane id=":1422600216_0_0" index="0" speed="5.67" length="6.42" width="4.00" shape="651.61,1152.56 652.52,1154.07 652.72,1155.50 652.21,1156.86 650.99,1158.13"/>
    </edge>
    <edge id=":1422601301_0" function="internal">
        <lane id=":1422601301_0_0" index="0" speed="13.89" length="8.00" width="4.00" shape="678.18,1027.36 678.73,1029.67 679.14,1031.24 679.64,1032.79 680.41,1035.03"/>
    </edge>
    <edge id=":1422601301_1" function="internal">
        <lane id=":1422601301_1_0" index="0" speed="5.93" length="6.60" width="4.00" shape="678.18,1027.36 678.34,1029.14 677.91,1030.59 676.90,1031.71 675.29,1032.49"/>
    </edge>
    <edge id=":1422601312_0" function="internal">
        <lane id=":1422601312_0_0" index="0" speed="7.80" length="8.00" width="4.00" shape="701.50,1069.63 699.42,1069.71 697.58,1070.29 695.99,1071.36 694.65,1072.94"/>
    </edge>
    <edge id=":1422601312_1" function="internal">
        <lane id=":1422601312_1_0" index="0" speed="6.95" length="2.11" width="4.00" shape="695.67,1066.83 696.13,1068.15 696.12,1068.86"/>
    </edge>
    <edge id=":1422601312_2" function="internal">
        <lane id=":1422601312_2_0" index="0" speed="6.95" length="4.40" width="4.00" shape="696.12,1068.86 696.11,1069.61 695.62,1071.20 694.65,1072.94"/>
    </edge>
    <edge id=":1422601313_0" function="internal">
        <lane id=":1422601313_0_0" index="0" speed="6.35" length="6.84" width="4.00" shape="678.72,1001.87 677.14,1002.79 676.11,1004.01 675.62,1005.53 675.68,1007.35"/>
    </edge>
    <edge id=":1422601313_1" function="internal">
        <lane id=":1422601313_1_0" index="0" speed="7.44" length="7.26" width="4.00" shape="678.72,1001.87 676.90,1002.39 675.16,1002.40 673.49,1001.91 671.88,1000.92"/>
    </edge>
    <edge id=":1422617306_0" function="internal">
        <lane id=":1422617306_0_0" index="0" speed="4.33" length="3.87" width="4.00" shape="509.51,1082.64 510.28,1083.80 510.59,1084.74 510.45,1085.45 509.87,1085.94"/>
    </edge>
    <edge id=":1422617307_0" function="internal">
        <lane id=":1422617307_0_0" index="0" speed="13.89" length="8.35" width="4.00" shape="503.36,1089.01 501.12,1090.05 499.53,1090.65 497.88,1091.06 495.44,1091.53"/>
    </edge>
    <edge id=":1422617307_1" function="internal">
        <lane id=":1422617307_1_0" index="0" speed="6.62" length="8.03" width="3.50" shape="503.36,1089.01 500.95,1089.90 498.93,1090.09 497.30,1089.59 496.05,1088.39"/>
        <lane id=":1422617307_1_1" index="1" speed="5.65" length="5.54" width="3.50" shape="503.36,1089.01 502.33,1089.21 501.25,1088.84 500.13,1087.92 498.95,1086.43"/>
    </edge>
    <edge id=":1637316080_0" function="internal">
        <lane id=":1637316080_0_0" index="0" speed="5.68" length="5.59" width="3.50" shape="636.04,461.23 634.99,461.40 634.08,462.11 633.32,463.37 632.71,465.17"/>
    </edge>
    <edge id=":1637316080_1" function="internal">
        <lane id=":1637316080_1_0" index="0" speed="13.89" length="8.07" width="4.00" shape="636.04,461.23 628.01,460.47"/>
    </edge>
    <edge id=":1637316080_2" function="internal">
        <lane id=":1637316080_2_0" index="0" speed="13.89" length="8.00" width="3.50" shape="634.72,457.43 632.71,465.17"/>
        <lane id=":1637316080_2_1" index="1" speed="13.89" length="8.00" width="3.50" shape="631.33,456.55 629.32,464.30"/>
    </edge>
    <edge id=":1637316080_4" function="internal">
        <lane id=":1637316080_4_0" index="0" speed="5.61" length="5.57" width="4.00" shape="631.33,456.55 630.72,458.35 629.96,459.60 629.06,460.31 628.01,460.47"/>
    </edge>
    <edge id=":1689414009_0" function="internal">
        <lane id=":1689414009_0_0" index="0" speed="4.37" length="3.81" width="4.00" shape="919.41,410.57 919.58,409.50 919.34,408.71 918.69,408.20 917.64,407.98"/>
    </edge>
    <edge id=":1689414026_0" function="internal">
        <lane id=":1689414026_0_0" index="0" speed="5.16" length="5.99" width="4.00" shape="895.73,484.86 896.09,483.19 895.78,481.94 894.80,481.11 893.15,480.69"/>
    </edge>
    <edge id=":1689414026_1" function="internal">
        <lane id=":1689414026_1_0" index="0" speed="13.89" length="8.00" width="4.00" shape="895.73,484.86 898.38,477.31"/>
    </edge>
    <edge id=":1689414098_0" function="internal">
        <lane id=":1689414098_0_0" index="0" speed="5.14" length="4.96" width="4.00" shape="710.96,466.76 710.07,466.95 709.39,467.66 708.93,468.89 708.68,470.63"/>
    </edge>
    <edge id=":1689414098_1" function="internal">
        <lane id=":1689414098_1_0" index="0" speed="13.89" length="8.00" width="4.00" shape="710.96,466.76 702.98,466.21"/>
    </edge>
    <edge id=":1689414098_2" function="internal">
        <lane id=":1689414098_2_0" index="0" speed="5.14" length="4.96" width="4.00" shape="704.69,470.36 704.69,468.60 704.40,467.32 703.83,466.52 702.98,466.21"/>
    </edge>
    <edge id=":1689414098_3" function="internal">
        <lane id=":1689414098_3_0" index="0" speed="4.08" length="3.07" width="4.00" shape="704.69,470.36 705.80,468.93 706.83,468.50 706.96,468.57"/>
    </edge>
    <edge id=":1689414098_4" function="internal">
        <lane id=":1689414098_4_0" index="0" speed="4.08" length="2.77" width="4.00" shape="706.96,468.57 707.79,469.07 708.68,470.63"/>
    </edge>
    <edge id=":1689414101_0" function="internal">
        <lane id=":1689414101_0_0" index="0" speed="13.89" length="10.96" width="4.00" shape="703.22,548.28 702.58,559.22"/>
    </edge>
    <edge id=":1689414101_1" function="internal">
        <lane id=":1689414101_1_0" index="0" speed="7.75" length="4.82" width="4.00" shape="703.22,548.28 702.49,550.84 700.98,552.39"/>
    </edge>
    <edge id=":1689414101_2" function="internal">
        <lane id=":1689414101_2_0" index="0" speed="4.08" length="2.92" width="4.00" shape="703.22,548.28 702.12,549.70 701.08,550.13"/>
    </edge>
    <edge id=":1689414101_9" function="internal">
        <lane id=":1689414101_9_0" index="0" speed="7.75" length="7.37" width="4.00" shape="700.98,552.39 700.70,552.67 697.86,553.79 693.96,554.20"/>
    </edge>
    <edge id=":1689414101_10" function="internal">
        <lane id=":1689414101_10_0" index="0" speed="4.08" length="2.92" width="4.00" shape="701.08,550.13 700.12,549.56 699.23,548.00"/>
    </edge>
    <edge id=":1689414101_3" function="internal">
        <lane id=":1689414101_3_0" index="0" speed="5.78" length="6.19" width="4.00" shape="693.92,550.20 696.19,550.02 697.83,549.60 698.84,548.92 699.23,548.00"/>
    </edge>
    <edge id=":1689414101_4" function="internal">
        <lane id=":1689414101_4_0" index="0" speed="7.96" length="14.50" width="4.00" shape="693.92,550.20 697.89,550.70 700.65,552.37 702.22,555.21 702.58,559.22"/>
    </edge>
    <edge id=":1689414101_5" function="internal">
        <lane id=":1689414101_5_0" index="0" speed="4.09" length="5.84" width="4.00" shape="693.92,550.20 695.43,551.18 695.94,552.18 695.45,553.18 693.96,554.20"/>
    </edge>
    <edge id=":1689414101_6" function="internal">
        <lane id=":1689414101_6_0" index="0" speed="6.04" length="7.73" width="4.00" shape="698.59,559.02 698.39,556.89 697.56,555.38 696.08,554.48 693.96,554.20"/>
    </edge>
    <edge id=":1689414101_7" function="internal">
        <lane id=":1689414101_7_0" index="0" speed="13.89" length="11.04" width="4.00" shape="698.59,559.02 699.23,548.00"/>
    </edge>
    <edge id=":1689414101_8" function="internal">
        <lane id=":1689414101_8_0" index="0" speed="4.08" length="2.92" width="4.00" shape="698.59,559.02 699.66,557.57 700.69,557.12"/>
    </edge>
    <edge id=":1689414101_11" function="internal">
        <lane id=":1689414101_11_0" index="0" speed="4.08" length="2.92" width="4.00" shape="700.69,557.12 701.66,557.67 702.58,559.22"/>
    </edge>
    <edge id=":1689414109_0" function="internal">
        <lane id=":1689414109_0_0" index="0" speed="13.89" length="22.27" width="4.00" shape="691.66,876.01 698.73,878.36 704.55,879.82 709.33,880.38 713.32,880.02"/>
    </edge>
    <edge id=":1689414109_1" function="internal">
        <lane id=":1689414109_1_0" index="0" speed="13.89" length="23.26" width="3.50" shape="690.48,879.30 697.25,881.30 702.27,882.10 707.04,882.69 713.10,884.04"/>
        <lane id=":1689414109_1_1" index="1" speed="13.89" length="23.26" width="3.50" shape="689.30,882.60 696.14,884.62 701.21,885.44 706.03,886.04 712.11,887.40"/>
    </edge>
    <edge id=":1689414122_0" function="internal">
        <lane id=":1689414122_0_0" index="0" speed="4.08" length="5.84" width="4.00" shape="681.08,713.71 682.88,713.66 683.87,714.18 684.04,715.29 683.39,716.97"/>
    </edge>
    <edge id=":1689414224_0" function="internal">
        <lane id=":1689414224_0_0" index="0" speed="6.22" length="6.82" width="3.50" shape="618.74,548.96 616.27,548.98 614.43,549.31 613.22,549.95 612.65,550.91"/>
    </edge>
    <edge id=":1689414224_1" function="internal">
        <lane id=":1689414224_1_0" index="0" speed="4.08" length="5.84" width="4.00" shape="618.74,548.96 617.29,547.89 616.84,546.86 617.39,545.89 618.94,544.97"/>
    </edge>
    <edge id=":1689414224_2" function="internal">
        <lane id=":1689414224_2_0" index="0" speed="5.65" length="7.31" width="4.00" shape="615.11,540.18 614.96,542.18 615.55,543.65 616.88,544.58 618.94,544.97"/>
    </edge>
    <edge id=":1689414224_3" function="internal">
        <lane id=":1689414224_3_0" index="0" speed="13.89" length="11.00" width="3.50" shape="615.11,540.18 612.65,550.91"/>
        <lane id=":1689414224_3_1" index="1" speed="13.89" length="11.00" width="3.50" shape="611.70,539.40 609.24,550.11"/>
    </edge>
    <edge id=":1689414249_0" function="internal">
        <lane id=":1689414249_0_0" index="0" speed="13.89" length="14.00" width="3.50" shape="597.12,616.01 594.81,629.68"/>
        <lane id=":1689414249_0_1" index="1" speed="13.89" length="14.00" width="3.50" shape="593.72,615.19 591.36,629.12"/>
    </edge>
    <edge id=":1689414290_0" function="internal">
        <lane id=":1689414290_0_0" index="0" speed="6.07" length="6.66" width="3.50" shape="582.74,713.07 580.31,712.98 578.49,713.23 577.30,713.81 576.74,714.72"/>
    </edge>
    <edge id=":1689414290_1" function="internal">
        <lane id=":1689414290_1_0" index="0" speed="13.89" length="11.26" width="4.00" shape="582.74,713.07 579.66,712.47 577.36,711.55 575.07,710.58 572.00,709.83"/>
    </edge>
    <edge id=":1689414290_2" function="internal">
        <lane id=":1689414290_2_0" index="0" speed="4.08" length="5.84" width="4.00" shape="582.74,713.07 581.34,711.93 580.93,710.89 581.53,709.94 583.11,709.09"/>
    </edge>
    <edge id=":1689414290_3" function="internal">
        <lane id=":1689414290_3_0" index="0" speed="5.77" length="7.50" width="4.00" shape="579.28,704.02 579.11,706.06 579.69,707.59 581.02,708.60 583.11,709.09"/>
    </edge>
    <edge id=":1689414290_4" function="internal">
        <lane id=":1689414290_4_0" index="0" speed="13.89" length="11.00" width="3.50" shape="579.28,704.02 576.74,714.72"/>
    </edge>
    <edge id=":1689414290_5" function="internal">
        <lane id=":1689414290_5_0" index="0" speed="6.42" length="5.63" width="4.00" shape="575.88,703.21 575.01,706.23 574.08,708.34 573.96,708.48"/>
    </edge>
    <edge id=":1689414290_9" function="internal">
        <lane id=":1689414290_9_0" index="0" speed="6.42" length="2.50" width="4.00" shape="573.96,708.48 573.08,709.54 572.00,709.83"/>
    </edge>
    <edge id=":1689414290_6" function="internal">
        <lane id=":1689414290_6_0" index="0" speed="4.91" length="4.88" width="4.00" shape="573.33,713.91 573.58,712.25 573.44,711.02 572.92,710.21 572.00,709.83"/>
    </edge>
    <edge id=":1689414290_7" function="internal">
        <lane id=":1689414290_7_0" index="0" speed="7.83" length="4.65" width="4.00" shape="573.33,713.91 574.44,711.50 576.00,710.25"/>
    </edge>
    <edge id=":1689414290_8" function="internal">
        <lane id=":1689414290_8_0" index="0" speed="3.82" length="2.56" width="3.50" shape="573.33,713.91 574.48,712.84 575.44,712.61"/>
    </edge>
    <edge id=":1689414290_10" function="internal">
        <lane id=":1689414290_10_0" index="0" speed="7.83" length="7.35" width="4.00" shape="576.00,710.25 576.44,709.90 579.33,709.09 583.11,709.09"/>
    </edge>
    <edge id=":1689414290_11" function="internal">
        <lane id=":1689414290_11_0" index="0" speed="3.82" length="2.56" width="3.50" shape="575.44,712.61 576.19,713.24 576.74,714.72"/>
    </edge>
    <edge id=":1689414301_0" function="internal">
        <lane id=":1689414301_0_0" index="0" speed="13.89" length="13.65" width="4.00" shape="570.24,795.22 568.74,792.05 566.82,789.41 564.51,787.04 561.86,784.65"/>
    </edge>
    <edge id=":1689414301_1" function="internal">
        <lane id=":1689414301_1_0" index="0" speed="13.89" length="14.86" width="3.50" shape="570.24,795.22 569.39,791.64 569.17,787.95 569.22,784.22 569.22,780.46"/>
    </edge>
    <edge id=":1689414301_2" function="internal">
        <lane id=":1689414301_2_0" index="0" speed="3.82" length="2.77" width="3.50" shape="570.24,795.22 570.59,793.69 571.26,792.97 571.48,792.99"/>
    </edge>
    <edge id=":1689414301_9" function="internal">
        <lane id=":1689414301_9_0" index="0" speed="3.82" length="2.34" width="3.50" shape="571.48,792.99 572.23,793.07 573.51,793.99"/>
    </edge>
    <edge id=":1689414301_3" function="internal">
        <lane id=":1689414301_3_0" index="0" speed="13.89" length="13.68" width="3.50" shape="572.72,780.41 572.69,783.97 572.55,787.31 572.70,790.58 573.51,793.99"/>
    </edge>
    <edge id=":1689414301_4" function="internal">
        <lane id=":1689414301_4_0" index="0" speed="7.34" length="7.87" width="4.00" shape="572.72,780.41 572.25,786.04 570.92,787.80"/>
    </edge>
    <edge id=":1689414301_5" function="internal">
        <lane id=":1689414301_5_0" index="0" speed="3.82" length="2.56" width="3.50" shape="572.72,780.41 571.86,781.73 571.00,782.19"/>
    </edge>
    <edge id=":1689414301_10" function="internal">
        <lane id=":1689414301_10_0" index="0" speed="7.34" length="10.62" width="4.00" shape="570.92,787.80 570.29,788.63 566.83,788.17 561.86,784.65"/>
    </edge>
    <edge id=":1689414301_11" function="internal">
        <lane id=":1689414301_11_0" index="0" speed="3.82" length="2.56" width="3.50" shape="571.00,782.19 570.11,781.76 569.22,780.46"/>
    </edge>
    <edge id=":1689414301_6" function="internal">
        <lane id=":1689414301_6_0" index="0" speed="5.03" length="7.45" width="3.50" shape="564.67,781.79 566.74,783.29 568.19,783.56 569.02,782.62 569.22,780.46"/>
    </edge>
    <edge id=":1689414301_7" function="internal">
        <lane id=":1689414301_7_0" index="0" speed="13.89" length="15.21" width="3.50" shape="564.67,781.79 567.39,784.43 569.86,787.37 571.94,790.56 573.51,793.99"/>
    </edge>
    <edge id=":1689414301_8" function="internal">
        <lane id=":1689414301_8_0" index="0" speed="4.08" length="5.85" width="4.00" shape="564.67,781.79 565.04,783.56 564.69,784.62 563.63,784.99 561.86,784.65"/>
    </edge>
    <edge id=":1689414330_0" function="internal">
        <lane id=":1689414330_0_0" index="0" speed="5.19" length="5.11" width="3.50" shape="530.75,451.30 529.79,450.95 529.17,450.14 528.87,448.86 528.90,447.11"/>
    </edge>
    <edge id=":1689414330_1" function="internal">
        <lane id=":1689414330_1_0" index="0" speed="13.89" length="8.00" width="3.50" shape="524.31,454.52 524.73,452.24 524.99,450.66 525.18,449.08 525.42,446.77"/>
        <lane id=":1689414330_1_1" index="1" speed="13.89" length="8.00" width="3.50" shape="527.75,455.17 528.19,452.79 528.46,451.16 528.66,449.51 528.90,447.11"/>
    </edge>
    <edge id=":1689414563_0" function="internal">
        <lane id=":1689414563_0_0" index="0" speed="13.89" length="8.00" width="4.00" shape="247.86,1085.62 247.35,1077.64"/>
    </edge>
    <edge id=":1689414563_1" function="internal">
        <lane id=":1689414563_1_0" index="0" speed="5.99" length="2.00" width="4.00" shape="251.52,1081.87 249.77,1081.52 249.59,1081.41"/>
    </edge>
    <edge id=":1689414563_2" function="internal">
        <lane id=":1689414563_2_0" index="0" speed="5.99" length="4.64" width="4.00" shape="249.59,1081.41 248.48,1080.69 247.68,1079.40 247.35,1077.64"/>
    </edge>
    <edge id=":1689414566_0" function="internal">
        <lane id=":1689414566_0_0" index="0" speed="13.89" length="8.00" width="4.00" shape="246.91,1068.00 246.38,1060.02"/>
    </edge>
    <edge id=":1689414566_1" function="internal">
        <lane id=":1689414566_1_0" index="0" speed="5.53" length="6.31" width="4.00" shape="246.91,1068.00 247.08,1066.26 247.78,1065.04 248.99,1064.33 250.73,1064.14"/>
    </edge>
    <edge id=":1689414568_0" function="internal">
        <lane id=":1689414568_0_0" index="0" speed="6.46" length="8.11" width="3.50" shape="238.85,974.71 238.31,973.93 236.87,973.39 234.52,973.07 231.27,972.99"/>
    </edge>
    <edge id=":1689414568_1" function="internal">
        <lane id=":1689414568_1_0" index="0" speed="13.89" length="14.41" width="4.00" shape="238.85,974.71 238.21,971.11 237.23,967.69 236.26,964.27 235.66,960.68"/>
    </edge>
    <edge id=":1689414568_2" function="internal">
        <lane id=":1689414568_2_0" index="0" speed="13.89" length="11.00" width="3.50" shape="242.19,972.94 231.27,972.99"/>
        <lane id=":1689414568_2_1" index="1" speed="13.89" length="11.00" width="3.50" shape="242.21,969.44 231.23,969.49"/>
        <lane id=":1689414568_2_2" index="2" speed="13.89" length="11.00" width="3.50" shape="242.22,965.94 231.20,965.99"/>
        <lane id=":1689414568_2_3" index="3" speed="13.89" length="11.00" width="3.50" shape="242.24,962.44 231.17,962.49"/>
    </edge>
    <edge id=":1689414568_6" function="internal">
        <lane id=":1689414568_6_0" index="0" speed="6.07" length="7.15" width="4.00" shape="242.24,962.44 239.41,962.32 237.37,961.99 236.12,961.44 235.66,960.68"/>
    </edge>
    <edge id=":1689414568_7" function="internal">
        <lane id=":1689414568_7_0" index="0" speed="6.48" length="9.15" width="3.50" shape="239.66,960.45 239.18,961.31 237.61,961.94 234.94,962.33 231.17,962.49"/>
    </edge>
    <edge id=":1689414568_8" function="internal">
        <lane id=":1689414568_8_0" index="0" speed="4.08" length="5.84" width="4.00" shape="239.66,960.45 238.74,962.01 237.77,962.56 236.74,962.12 235.66,960.68"/>
    </edge>
    <edge id=":1917532112_0" function="internal">
        <lane id=":1917532112_0_0" index="0" speed="13.89" length="8.00" width="4.00" shape="414.43,311.80 406.45,311.19"/>
    </edge>
    <edge id=":1917532112_1" function="internal">
        <lane id=":1917532112_1_0" index="0" speed="5.63" length="2.06" width="4.00" shape="410.60,307.49 410.28,309.22 410.12,309.47"/>
    </edge>
    <edge id=":1917532112_2" function="internal">
        <lane id=":1917532112_2_0" index="0" speed="5.63" length="4.34" width="4.00" shape="410.12,309.47 409.48,310.41 408.21,311.07 406.45,311.19"/>
    </edge>
    <edge id=":2166980534_0" function="internal">
        <lane id=":2166980534_0_0" index="0" speed="13.89" length="8.00" width="3.50" shape="608.99,566.59 607.14,574.39"/>
        <lane id=":2166980534_0_1" index="1" speed="13.89" length="8.00" width="3.50" shape="605.58,565.80 603.74,573.57"/>
    </edge>
    <edge id=":2166980534_2" function="internal">
        <lane id=":2166980534_2_0" index="0" speed="4.92" length="4.89" width="4.00" shape="605.58,565.80 605.06,567.40 604.39,568.45 603.56,568.94 602.56,568.88"/>
    </edge>
    <edge id=":2166980540_0" function="internal">
        <lane id=":2166980540_0_0" index="0" speed="13.89" length="8.00" width="3.50" shape="620.45,516.99 618.62,524.74"/>
        <lane id=":2166980540_0_1" index="1" speed="13.89" length="8.00" width="3.50" shape="617.06,516.15 615.20,523.97"/>
    </edge>
    <edge id=":2166980540_2" function="internal">
        <lane id=":2166980540_2_0" index="0" speed="5.35" length="5.27" width="3.50" shape="613.95,519.36 614.84,519.88 615.34,520.82 615.46,522.18 615.20,523.97"/>
    </edge>
    <edge id=":2166980552_0" function="internal">
        <lane id=":2166980552_0_0" index="0" speed="13.89" length="7.99" width="4.00" shape="595.93,566.74 593.68,566.00 592.12,565.54 590.54,565.18 588.21,564.73"/>
    </edge>
    <edge id=":2166980552_1" function="internal">
        <lane id=":2166980552_1_0" index="0" speed="6.97" length="7.11" width="4.00" shape="595.93,566.74 594.25,565.94 593.00,564.80 592.19,563.31 591.81,561.49"/>
    </edge>
    <edge id=":2169050240_0" function="internal">
        <lane id=":2169050240_0_0" index="0" speed="13.89" length="8.00" width="4.00" shape="541.39,321.13 533.43,320.35"/>
    </edge>
    <edge id=":2169050240_1" function="internal">
        <lane id=":2169050240_1_0" index="0" speed="5.18" length="6.01" width="4.00" shape="541.39,321.13 539.73,320.73 538.73,319.90 538.39,318.65 538.72,316.97"/>
    </edge>
    <edge id=":2169050287_0" function="internal">
        <lane id=":2169050287_0_0" index="0" speed="5.30" length="5.22" width="3.50" shape="590.81,242.20 591.81,242.41 592.81,242.06 593.80,241.14 594.78,239.64"/>
    </edge>
    <edge id=":2169050287_1" function="internal">
        <lane id=":2169050287_1_0" index="0" speed="13.89" length="8.00" width="3.50" shape="590.93,246.65 594.78,239.64"/>
        <lane id=":2169050287_1_1" index="1" speed="13.89" length="8.00" width="3.50" shape="593.99,248.34 597.85,241.33"/>
    </edge>
    <edge id=":2178846525_0" function="internal">
        <lane id=":2178846525_0_0" index="0" speed="5.20" length="5.12" width="3.50" shape="575.31,738.85 574.30,739.02 573.54,739.71 573.02,740.92 572.73,742.65"/>
    </edge>
    <edge id=":2178846525_1" function="internal">
        <lane id=":2178846525_1_0" index="0" speed="6.23" length="7.91" width="3.50" shape="575.31,738.85 572.82,738.39 571.09,737.49 570.12,736.16 569.91,734.39"/>
    </edge>
    <edge id=":2178846525_2" function="internal">
        <lane id=":2178846525_2_0" index="0" speed="13.89" length="8.00" width="3.50" shape="573.40,734.68 572.73,742.65"/>
    </edge>
    <edge id=":2178846525_3" function="internal">
        <lane id=":2178846525_3_0" index="0" speed="3.82" length="2.56" width="3.50" shape="573.40,734.68 572.42,735.91 571.51,736.27"/>
    </edge>
    <edge id=":2178846525_6" function="internal">
        <lane id=":2178846525_6_0" index="0" speed="3.82" length="2.56" width="3.50" shape="571.51,736.27 570.67,735.77 569.91,734.39"/>
    </edge>
    <edge id=":2178846525_4" function="internal">
        <lane id=":2178846525_4_0" index="0" speed="13.89" length="8.00" width="3.50" shape="569.24,742.36 569.91,734.39"/>
    </edge>
    <edge id=":2178846525_5" function="internal">
        <lane id=":2178846525_5_0" index="0" speed="3.82" length="2.56" width="3.50" shape="569.24,742.36 570.22,741.12 571.13,740.76"/>
    </edge>
    <edge id=":2178846525_7" function="internal">
        <lane id=":2178846525_7_0" index="0" speed="3.82" length="2.56" width="3.50" shape="571.13,740.76 571.97,741.27 572.73,742.65"/>
    </edge>
    <edge id=":2178846530_0" function="internal">
        <lane id=":2178846530_0_0" index="0" speed="4.99" length="4.84" width="4.00" shape="605.37,715.29 603.68,715.18 602.45,715.40 601.67,715.95 601.35,716.83"/>
    </edge>
    <edge id=":2178846530_1" function="internal">
        <lane id=":2178846530_1_0" index="0" speed="13.89" length="7.88" width="4.00" shape="605.37,715.29 597.54,714.37"/>
    </edge>
    <edge id=":2178846530_2" function="internal">
        <lane id=":2178846530_2_0" index="0" speed="4.08" length="2.92" width="4.00" shape="605.37,715.29 604.03,714.09 603.68,713.02"/>
    </edge>
    <edge id=":2178846530_6" function="internal">
        <lane id=":2178846530_6_0" index="0" speed="4.08" length="2.92" width="4.00" shape="603.68,713.02 604.32,712.11 605.95,711.34"/>
    </edge>
    <edge id=":2178846530_3" function="internal">
        <lane id=":2178846530_3_0" index="0" speed="13.89" length="8.12" width="4.00" shape="597.89,710.39 605.95,711.34"/>
    </edge>
    <edge id=":2178846530_4" function="internal">
        <lane id=":2178846530_4_0" index="0" speed="6.33" length="4.10" width="4.00" shape="597.89,710.39 599.60,710.92 600.75,712.17 600.92,712.76"/>
    </edge>
    <edge id=":2178846530_5" function="internal">
        <lane id=":2178846530_5_0" index="0" speed="4.08" length="2.92" width="4.00" shape="597.89,710.39 599.30,711.52 599.71,712.56"/>
    </edge>
    <edge id=":2178846530_7" function="internal">
        <lane id=":2178846530_7_0" index="0" speed="6.33" length="4.14" width="4.00" shape="600.92,712.76 601.33,714.14 601.35,716.83"/>
    </edge>
    <edge id=":2178846530_8" function="internal">
        <lane id=":2178846530_8_0" index="0" speed="4.08" length="2.92" width="4.00" shape="599.71,712.56 599.13,713.51 597.54,714.37"/>
    </edge>
    <edge id=":2563891125_0" function="internal">
        <lane id=":2563891125_0_0" index="0" speed="10.67" length="7.81" width="4.00" shape="571.76,235.12 573.49,236.64 574.86,237.49 576.41,237.93 578.69,238.18"/>
    </edge>
    <edge id=":2563891125_1" function="internal">
        <lane id=":2563891125_1_0" index="0" speed="6.78" length="2.51" width="4.00" shape="573.00,241.45 573.99,239.89 574.50,239.47"/>
    </edge>
    <edge id=":2563891125_2" function="internal">
        <lane id=":2563891125_2_0" index="0" speed="6.78" length="4.52" width="4.00" shape="574.50,239.47 575.27,238.83 576.84,238.26 578.69,238.18"/>
    </edge>
    <edge id=":2743765102_0" function="internal">
        <lane id=":2743765102_0_0" index="0" speed="4.67" length="4.53" width="3.50" shape="577.50,284.75 576.60,284.33 576.18,283.57 576.22,282.45 576.74,280.99"/>
    </edge>
    <edge id=":2743765102_1" function="internal">
        <lane id=":2743765102_1_0" index="0" speed="13.89" length="8.00" width="3.50" shape="570.21,286.79 573.57,279.53"/>
        <lane id=":2743765102_1_1" index="1" speed="13.89" length="8.00" width="3.50" shape="573.39,288.26 576.74,280.99"/>
    </edge>
    <edge id=":3072401977_0" function="internal">
        <lane id=":3072401977_0_0" index="0" speed="6.35" length="7.96" width="3.50" shape="506.28,604.29 503.87,603.51 502.23,602.40 501.38,600.96 501.30,599.20"/>
        <lane id=":3072401977_0_1" index="1" speed="5.35" length="5.27" width="3.50" shape="506.28,604.29 505.37,603.83 504.81,602.92 504.60,601.56 504.76,599.77"/>
    </edge>
    <edge id=":3271391131_0" function="internal">
        <lane id=":3271391131_0_0" index="0" speed="5.50" length="4.18" width="4.00" shape="644.05,961.27 640.37,960.04 640.15,959.82"/>
    </edge>
    <edge id=":3271391131_2" function="internal">
        <lane id=":3271391131_2_0" index="0" speed="5.50" length="6.96" width="4.00" shape="640.15,959.82 639.23,958.95 640.62,958.00 644.55,957.19"/>
    </edge>
    <edge id=":3271391131_1" function="internal">
        <lane id=":3271391131_1_0" index="0" speed="13.89" length="8.13" width="4.00" shape="636.50,958.32 644.55,957.19"/>
    </edge>
    <edge id=":3271391135_0" function="internal">
        <lane id=":3271391135_0_0" index="0" speed="5.65" length="6.41" width="4.00" shape="617.89,968.15 617.13,966.56 616.04,965.61 614.64,965.30 612.91,965.62"/>
    </edge>
    <edge id=":3271391135_1" function="internal">
        <lane id=":3271391135_1_0" index="0" speed="5.80" length="6.51" width="4.00" shape="617.89,968.15 617.60,966.40 617.93,964.95 618.89,963.82 620.46,963.00"/>